
     RDKit          3D

 11 11  0  0  0  0  0  0  0  0999 V2000
    2.5135   23.8272    9.3806 C   0  0  0  0  0  0  0  0  0  0  0  0
    2.4440   24.2615   11.7507 C   0  0  0  0  0  0  0  0  0  0  0  0
    2.4920   25.1041   12.8220 C   0  0  0  0  0  0  0  0  0  0  0  0
    2.7057   24.7678   10.4714 C   0  0  0  0  0  0  0  0  0  0  0  0
    2.8406   26.4720   12.6433 C   0  0  0  0  0  0  0  0  0  0  0  0
    3.1491   26.1276   10.2532 C   0  0  0  0  0  0  0  0  0  0  0  0
    3.2882   26.7954   15.1005 C   0  0  0  0  0  0  0  0  0  0  0  0
    3.2081   27.0185   11.3695 C   0  0  0  0  0  0  0  0  0  0  0  0
    1.3675   23.7296    8.8613 O   0  0  0  0  0  0  0  0  0  0  0  0
    2.8133   27.2074   13.8202 O   0  0  0  0  0  0  0  0  0  0  0  0
    3.3231   22.8129    9.4044 O   0  0  0  0  0  0  0  0  0  0  0  0
  1  4  1  0
  1  9  2  0
  1 11  1  0
  2  3  2  0
  2  4  1  0
  3  5  1  0
  4  6  2  0
  5  8  2  0
  5 10  1  0
  6  8  1  0
  7 10  1  0
M  END
$$$$

     RDKit          3D

 13 13  0  0  0  0  0  0  0  0999 V2000
    2.1911   26.7741   15.3130 C   0  0  0  0  0  0  0  0  0  0  0  0
    2.5506   25.4582   11.7086 C   0  0  0  0  0  0  0  0  0  0  0  0
    2.4240   26.8609   13.8998 C   0  0  0  0  0  0  0  0  0  0  0  0
    2.8523   25.6024   13.1072 C   0  0  0  0  0  0  0  0  0  0  0  0
    3.0643   24.3874   11.0081 C   0  0  0  0  0  0  0  0  0  0  0  0
    3.5647   24.5657   13.7026 C   0  0  0  0  0  0  0  0  0  0  0  0
    3.8022   23.4130   11.6419 C   0  0  0  0  0  0  0  0  0  0  0  0
    4.0590   23.5153   12.9957 C   0  0  0  0  0  0  0  0  0  0  0  0
    1.4339   23.8779    9.0191 O   0  0  0  0  0  0  0  0  0  0  0  0
    3.3027   25.4628    8.7598 O   0  0  0  0  0  0  0  0  0  0  0  0
    3.3851   27.0307   16.2848 N   0  0  0  0  0  0  0  0  0  0  0  0
    3.7635   22.9915    8.9044 N   0  0  0  0  0  0  0  0  0  0  0  0
    2.8757   24.1999    9.3417 S   0  0  0  0  0  0  0  0  0  0  0  0
  1  3  1  0
  1 11  1  0
  2  4  2  0
  2  5  1  0
  3  4  1  0
  4  6  1  0
  5  7  2  0
  5 13  1  0
  6  8  2  0
  7  8  1  0
  9 13  1  0
 10 13  1  0
 12 13  1  0
M  END
$$$$

     RDKit          3D

 11 12  0  0  0  0  0  0  0  0999 V2000
    2.5376   24.1554   11.3409 C   0  0  0  0  0  0  0  0  0  0  0  0
    2.5197   24.6420   13.7276 C   0  0  0  0  0  0  0  0  0  0  0  0
    2.8312   24.5044   10.0489 C   0  0  0  0  0  0  0  0  0  0  0  0
    2.7802   25.0378   12.3946 C   0  0  0  0  0  0  0  0  0  0  0  0
    2.8181   25.5068   14.7767 C   0  0  0  0  0  0  0  0  0  0  0  0
    3.3675   25.7999    9.7704 C   0  0  0  0  0  0  0  0  0  0  0  0
    3.2564   26.3347   12.1350 C   0  0  0  0  0  0  0  0  0  0  0  0
    3.3654   26.7609   14.4953 C   0  0  0  0  0  0  0  0  0  0  0  0
    3.5846   26.7305   10.8061 C   0  0  0  0  0  0  0  0  0  0  0  0
    3.3981   27.1722   13.1748 O   0  0  0  0  0  0  0  0  0  0  0  0
    2.5954   23.5996    9.0327 N   0  0  0  0  0  0  0  0  0  0  0  0
  1  3  2  0
  1  4  1  0
  2  4  1  0
  2  5  1  0
  3  6  1  0
  3 11  1  0
  4  7  2  0
  5  8  2  0
  6  9  2  0
  7  9  1  0
  7 10  1  0
  8 10  1  0
M  END
$$$$

     RDKit          3D

 14 15  0  0  0  0  0  0  0  0999 V2000
    2.1422   25.0028   10.5675 C   0  0  0  0  0  0  0  0  0  0  0  0
    2.3481   26.8012   15.4103 C   0  0  0  0  0  0  0  0  0  0  0  0
    2.4674   27.5176   14.2318 C   0  0  0  0  0  0  0  0  0  0  0  0
    2.7541   25.4457   12.9784 C   0  0  2  0  0  0  0  0  0  0  0  0
    2.6777   26.8346   13.0452 C   0  0  0  0  0  0  0  0  0  0  0  0
    2.9426   24.6955   11.6962 C   0  0  0  0  0  0  0  0  0  0  0  0
    3.2104   23.3378    9.3352 C   0  0  0  0  0  0  0  0  0  0  0  0
    3.4121   22.5398    8.0908 C   0  0  0  0  0  0  0  0  0  0  0  0
    3.9065   23.6666   11.5799 C   0  0  0  0  0  0  0  0  0  0  0  0
    2.2629   24.2945    9.3976 N   0  0  0  0  0  0  0  0  0  0  0  0
    2.3994   25.4892   15.4696 N   0  0  0  0  0  0  0  0  0  0  0  0
    3.9599   22.9649   10.3738 N   0  0  0  0  0  0  0  0  0  0  0  0
    2.5391   24.6105   14.2883 S   0  0  0  0  0  0  0  0  0  0  0  0
    1.9086   27.6602   16.7421 Cl  0  0  0  0  0  0  0  0  0  0  0  0
  1  6  2  0
  1 10  1  0
  2  3  1  0
  2 11  2  0
  2 14  1  0
  3  5  2  0
  4  5  1  0
  4  6  1  6
  4 13  1  0
  6  9  1  0
  7  8  1  0
  7 10  2  0
  7 12  1  0
  9 12  2  0
 11 13  1  0
M  END
$$$$

     RDKit          3D

 11 11  0  0  0  0  0  0  0  0999 V2000
    2.2333   24.9848   13.6770 C   0  0  0  0  0  0  0  0  0  0  0  0
    2.4788   24.3269   12.4560 C   0  0  0  0  0  0  0  0  0  0  0  0
    2.5490   26.3510   13.8378 C   0  0  0  0  0  0  0  0  0  0  0  0
    3.0946   25.0436   11.3779 C   0  0  0  0  0  0  0  0  0  0  0  0
    3.0103   27.0804   12.7207 C   0  0  0  0  0  0  0  0  0  0  0  0
    3.2721   26.4437   11.4963 C   0  0  0  0  0  0  0  0  0  0  0  0
    3.6288   24.2895   10.1908 C   0  0  0  0  0  0  0  0  0  0  0  0
    3.6057   27.2532   10.3841 O   0  0  0  0  0  0  0  0  0  0  0  0
    3.8260   22.9453   10.2332 O   0  0  0  0  0  0  0  0  0  0  0  0
    3.9413   24.9425    9.1479 O   0  0  0  0  0  0  0  0  0  0  0  0
    2.3962   27.0569   15.0716 N   0  0  0  0  0  0  0  0  0  0  0  0
  1  2  2  0
  1  3  1  0
  2  4  1  0
  3  5  2  0
  3 11  1  0
  4  6  2  0
  4  7  1  0
  5  6  1  0
  6  8  1  0
  7  9  2  0
  7 10  1  0
M  END
$$$$

     RDKit          3D

 13 13  0  0  0  0  0  0  0  0999 V2000
    2.4077   26.0862   15.9524 C   0  0  0  0  0  0  0  0  0  0  0  0
    2.6546   23.9894   10.9133 C   0  0  0  0  0  0  0  0  0  0  0  0
    2.5033   24.5839   12.1365 C   0  0  0  0  0  0  0  0  0  0  0  0
    2.5383   26.5511   13.6065 C   0  0  0  0  0  0  0  0  0  0  0  0
    2.8181   25.9388   12.3011 C   0  0  0  0  0  0  0  0  0  0  0  0
    3.1729   24.7064    9.8666 C   0  0  0  0  0  0  0  0  0  0  0  0
    3.2685   26.6902   11.2085 C   0  0  0  0  0  0  0  0  0  0  0  0
    3.4527   26.0677    9.9929 C   0  0  0  0  0  0  0  0  0  0  0  0
    4.4725   26.6362   14.7967 C   0  0  0  0  0  0  0  0  0  0  0  0
    1.2091   25.6666   15.8986 O   0  0  0  0  0  0  0  0  0  0  0  0
    1.6082   27.3746   13.6995 O   0  0  0  0  0  0  0  0  0  0  0  0
    3.0041   26.5282   16.9953 O   0  0  0  0  0  0  0  0  0  0  0  0
    3.2010   26.0846   14.7341 N   0  0  0  0  0  0  0  0  0  0  0  0
  1 10  2  0
  1 12  1  0
  1 13  1  0
  2  3  2  0
  2  6  1  0
  3  5  1  0
  4  5  1  0
  4 11  2  0
  4 13  1  0
  5  7  2  0
  6  8  2  0
  7  8  1  0
  9 13  1  0
M  END
$$$$

     RDKit          3D

 13 14  0  0  0  0  0  0  0  0999 V2000
    2.1019   27.0879   13.6559 C   0  0  0  0  0  0  0  0  0  0  0  0
    2.7090   24.5894    9.8032 C   0  0  0  0  0  0  0  0  0  0  0  0
    2.6853   24.7796   11.1916 C   0  0  0  0  0  0  0  0  0  0  0  0
    3.2247   25.5772    8.9615 C   0  0  0  0  0  0  0  0  0  0  0  0
    3.2289   25.8640   15.2798 C   0  0  0  0  0  0  0  0  0  0  0  0
    3.1637   25.9889   11.7348 C   0  0  0  0  0  0  0  0  0  0  0  0
    3.6299   26.9855   10.8984 C   0  0  0  0  0  0  0  0  0  0  0  0
    3.8920   25.5724   14.0278 C   0  0  0  0  0  0  0  0  0  0  0  0
    3.6773   26.7836    9.5173 C   0  0  0  0  0  0  0  0  0  0  0  0
    2.1681   23.4333    9.2845 O   0  0  0  0  0  0  0  0  0  0  0  0
    2.3117   23.7602   11.9928 O   0  0  0  0  0  0  0  0  0  0  0  0
    2.2937   26.8986   15.0245 N   0  0  0  0  0  0  0  0  0  0  0  0
    3.0798   26.2294   13.1067 N   0  0  0  0  0  0  0  0  0  0  0  0
  1 12  1  0
  1 13  1  0
  2  3  2  0
  2  4  1  0
  2 10  1  0
  3  6  1  0
  3 11  1  0
  4  9  2  0
  5  8  1  0
  5 12  1  0
  6  7  2  0
  6 13  1  0
  7  9  1  0
  8 13  1  0
M  END
$$$$

     RDKit          3D

 12 13  0  0  0  0  0  0  0  0999 V2000
    1.9282   25.9933   14.5119 C   0  0  0  0  0  0  0  0  0  0  0  0
    2.0618   26.4566   15.8138 C   0  0  0  0  0  0  0  0  0  0  0  0
    2.5004   24.0713   10.5243 C   0  0  0  0  0  0  0  0  0  0  0  0
    2.5435   24.4123   11.8472 C   0  0  0  0  0  0  0  0  0  0  0  0
    2.8916   24.9546    9.5367 C   0  0  0  0  0  0  0  0  0  0  0  0
    2.9711   25.6566   12.2315 C   0  0  0  0  0  0  0  0  0  0  0  0
    3.0126   26.1024   13.6313 C   0  0  0  0  0  0  0  0  0  0  0  0
    3.3203   26.2195    9.9331 C   0  0  0  0  0  0  0  0  0  0  0  0
    3.3690   26.5783   11.2561 C   0  0  0  0  0  0  0  0  0  0  0  0
    3.2150   27.0890   16.2295 C   0  0  0  0  0  0  0  0  0  0  0  0
    4.1965   26.6974   14.0779 C   0  0  0  0  0  0  0  0  0  0  0  0
    4.2903   27.1389   15.3575 C   0  0  0  0  0  0  0  0  0  0  0  0
  1  2  2  0
  1  7  1  0
  2 10  1  0
  3  4  2  0
  3  5  1  0
  4  6  1  0
  5  8  2  0
  6  7  1  0
  6  9  2  0
  7 11  2  0
  8  9  1  0
 10 12  2  0
 11 12  1  0
M  END
$$$$

     RDKit          3D

 11 11  0  0  0  0  0  0  0  0999 V2000
    2.4374   24.3798   10.4586 C   0  0  0  0  0  0  0  0  0  0  0  0
    2.5470   24.6661   12.7944 C   0  0  0  0  0  0  0  0  0  0  0  0
    2.7956   26.9608   14.6642 C   0  0  0  0  0  0  0  0  0  0  0  0
    3.0038   25.6485   10.2061 C   0  0  0  0  0  0  0  0  0  0  0  0
    2.9539   26.8270   16.0110 C   0  0  0  0  0  0  0  0  0  0  0  0
    3.2018   25.9031   12.5411 C   0  0  0  0  0  0  0  0  0  0  0  0
    3.3666   26.4097   11.2868 C   0  0  0  0  0  0  0  0  0  0  0  0
    3.7554   26.6369   13.6724 C   0  0  2  0  0  0  0  0  0  0  0  0
    5.1299   26.8488   13.7007 C   0  0  0  0  0  0  0  0  0  0  0  0
    2.1365   23.9457   11.7421 N   0  0  0  0  0  0  0  0  0  0  0  0
    2.2484   23.5891    9.3568 N   0  0  0  0  0  0  0  0  0  0  0  0
  1  4  1  0
  1 10  1  0
  1 11  2  0
  2  6  1  0
  2 10  2  0
  3  5  2  0
  3  8  1  0
  4  7  1  0
  6  7  2  0
  6  8  1  0
  8  9  1  1
M  END
$$$$

     RDKit          3D

 14 15  0  0  0  0  0  0  0  0999 V2000
    2.2197   26.7585   15.6555 C   0  0  0  0  0  0  0  0  0  0  0  0
    2.4247   26.0200   13.3444 C   0  0  0  0  0  0  0  0  0  0  0  0
    2.6266   27.1200   14.2814 C   0  0  0  0  0  0  0  0  0  0  0  0
    2.6939   24.8336   11.5788 C   0  0  0  0  0  0  0  0  0  0  0  0
    3.1926   24.4331   10.3225 C   0  0  0  0  0  0  0  0  0  0  0  0
    3.9093   23.0279    8.8126 C   0  0  0  0  0  0  0  0  0  0  0  0
    3.9574   25.2379    9.5031 C   0  0  0  0  0  0  0  0  0  0  0  0
    4.4627   24.3450    8.4939 C   0  0  0  0  0  0  0  0  0  0  0  0
    1.3427   25.9394   15.9658 O   0  0  0  0  0  0  0  0  0  0  0  0
    2.0179   24.6999   13.5932 N   0  0  0  0  0  0  0  0  0  0  0  0
    2.1671   24.0029   12.4494 N   0  0  0  0  0  0  0  0  0  0  0  0
    2.8636   26.0695   12.0779 N   0  0  0  0  0  0  0  0  0  0  0  0
    2.7461   27.4811   16.6529 N   0  0  0  0  0  0  0  0  0  0  0  0
    3.1348   23.1724    9.9032 N   0  0  0  0  0  0  0  0  0  0  0  0
  1  3  1  0
  1  9  2  0
  1 13  1  0
  2  3  1  0
  2 10  2  0
  2 12  1  0
  4  5  2  3
  4 11  1  0
  4 12  1  0
  5  7  1  0
  5 14  1  0
  6  8  1  0
  6 14  1  0
  7  8  1  0
 10 11  1  0
M  END
$$$$

     RDKit          3D

 12 12  0  0  0  0  0  0  0  0999 V2000
    2.3520   24.6466   12.4035 C   0  0  0  0  0  0  0  0  0  0  0  0
    2.6977   24.0470   11.1889 C   0  0  0  0  0  0  0  0  0  0  0  0
    2.8443   25.2221   14.8140 C   0  0  0  0  0  0  0  0  0  0  0  0
    3.0106   26.7754   14.6135 C   0  0  0  0  0  0  0  0  0  0  0  0
    3.1853   23.2239    8.8749 C   0  0  0  0  0  0  0  0  0  0  0  0
    3.1801   24.5351   13.5304 C   0  0  0  0  0  0  0  0  0  0  0  0
    3.9024   23.2950   11.1050 C   0  0  0  0  0  0  0  0  0  0  0  0
    4.3766   23.7860   13.4559 C   0  0  0  0  0  0  0  0  0  0  0  0
    4.7484   23.1911   12.2120 C   0  0  0  0  0  0  0  0  0  0  0  0
    1.9006   27.2314   13.8493 O   0  0  0  0  0  0  0  0  0  0  0  0
    1.9464   24.1364   10.0640 O   0  0  0  0  0  0  0  0  0  0  0  0
    4.1981   22.7216    9.9120 O   0  0  0  0  0  0  0  0  0  0  0  0
  1  2  2  0
  1  6  1  0
  2  7  1  0
  2 11  1  0
  3  4  1  0
  3  6  1  0
  4 10  1  0
  5 12  1  0
  6  8  2  0
  7  9  2  0
  7 12  1  0
  8  9  1  0
M  END
$$$$

     RDKit          3D

 17 18  0  0  0  0  0  0  0  0999 V2000
    2.1368   27.1435   14.8870 C   0  0  0  0  0  0  0  0  0  0  0  0
    2.2899   26.5826   13.6081 C   0  0  0  0  0  0  0  0  0  0  0  0
    2.4776   26.4305   16.0204 C   0  0  0  0  0  0  0  0  0  0  0  0
    2.7469   24.6664    9.6802 C   0  0  0  0  0  0  0  0  0  0  0  0
    2.8493   25.3004   13.4567 C   0  0  0  0  0  0  0  0  0  0  0  0
    2.7978   25.4245   10.9211 C   0  0  0  0  0  0  0  0  0  0  0  0
    3.0039   25.1602   15.9240 C   0  0  0  0  0  0  0  0  0  0  0  0
    3.3164   23.3671    9.6385 C   0  0  0  0  0  0  0  0  0  0  0  0
    3.1864   24.5433   14.6279 C   0  0  0  0  0  0  0  0  0  0  0  0
    3.2207   25.0615   18.3625 C   0  0  0  0  0  0  0  0  0  0  0  0
    3.4278   22.6567    8.3344 C   0  0  0  0  0  0  0  0  0  0  0  0
    3.4907   23.3953   12.0251 C   0  0  0  0  0  0  0  0  0  0  0  0
    4.5578   22.7741    7.3618 C   0  0  0  0  0  0  0  0  0  0  0  0
    2.8143   26.6115   10.7689 O   0  0  0  0  0  0  0  0  0  0  0  0
    3.3097   24.4386   17.0640 O   0  0  0  0  0  0  0  0  0  0  0  0
    3.0414   24.7088   12.1183 N   0  0  0  0  0  0  0  0  0  0  0  0
    3.6730   22.7727   10.8289 N   0  0  0  0  0  0  0  0  0  0  0  0
  1  2  2  0
  1  3  1  0
  2  5  1  0
  3  7  2  0
  4  6  1  0
  4  8  2  0
  5  9  2  0
  5 16  1  0
  6 14  2  0
  6 16  1  0
  7  9  1  0
  7 15  1  0
  8 11  1  0
  8 17  1  0
 10 15  1  0
 11 13  1  0
 12 16  1  0
 12 17  2  0
M  END
$$$$

     RDKit          3D

 10 10  0  0  0  0  0  0  0  0999 V2000
    2.2195   26.9482   14.9221 C   0  0  0  0  0  0  0  0  0  0  0  0
    2.4577   24.7386   12.6312 C   0  0  0  0  0  0  0  0  0  0  0  0
    2.7724   26.0909   12.5610 C   0  0  0  0  0  0  0  0  0  0  0  0
    2.7456   27.0366   13.5800 C   0  0  0  0  0  0  0  0  0  0  0  0
    3.0053   25.1506   10.5123 C   0  0  0  0  0  0  0  0  0  0  0  0
    3.1434   26.4025   11.1910 C   0  0  0  0  0  0  0  0  0  0  0  0
    3.3597   24.8093    9.2470 C   0  0  0  0  0  0  0  0  0  0  0  0
    3.3447   26.8046   16.0952 C   0  0  0  0  0  0  0  0  0  0  0  0
    2.4132   24.2540   11.3316 O   0  0  0  0  0  0  0  0  0  0  0  0
    4.6595   24.1831    8.9446 O   0  0  0  0  0  0  0  0  0  0  0  0
  1  4  1  0
  1  8  1  0
  2  3  1  0
  2  9  1  0
  3  4  2  3
  3  6  1  0
  5  6  1  0
  5  7  1  0
  5  9  1  0
  7 10  1  0
M  END
$$$$

     RDKit          3D

 12 13  0  0  0  0  0  0  0  0999 V2000
    2.5467   24.6786   11.8863 C   0  0  0  0  0  0  0  0  0  0  0  0
    2.5809   26.6809   15.7126 C   0  0  0  0  0  0  0  0  0  0  0  0
    3.0198   25.1584    9.6556 C   0  0  0  0  0  0  0  0  0  0  0  0
    3.0830   25.9267   12.2609 C   0  0  0  0  0  0  0  0  0  0  0  0
    3.1525   26.3142   13.6715 C   0  0  0  0  0  0  0  0  0  0  0  0
    3.5376   26.4003    9.9908 C   0  0  0  0  0  0  0  0  0  0  0  0
    3.5617   26.7915   11.3247 C   0  0  0  0  0  0  0  0  0  0  0  0
    3.9287   26.8878   15.6009 C   0  0  0  0  0  0  0  0  0  0  0  0
    2.0530   23.8554   12.7089 O   0  0  0  0  0  0  0  0  0  0  0  0
    2.1453   26.2796   14.5148 N   0  0  0  0  0  0  0  0  0  0  0  0
    2.4993   24.3249   10.6017 N   0  0  0  0  0  0  0  0  0  0  0  0
    4.2430   26.6947   14.2945 N   0  0  0  0  0  0  0  0  0  0  0  0
  1  4  1  0
  1  9  2  0
  1 11  1  0
  2  8  1  0
  2 10  1  0
  3  6  1  0
  3 11  2  0
  4  5  1  0
  4  7  2  0
  5 10  2  0
  5 12  1  0
  6  7  1  0
  8 12  1  0
M  END
$$$$

     RDKit          3D

 14 14  0  0  0  0  0  0  0  0999 V2000
    2.3871   24.6442   11.4111 C   0  0  2  0  0  0  0  0  0  0  0  0
    2.3414   27.1635   15.4632 C   0  0  0  0  0  0  0  0  0  0  0  0
    2.4551   24.5537   10.0413 C   0  0  0  0  0  0  0  0  0  0  0  0
    2.7467   25.8557   12.0634 C   0  0  0  0  0  0  0  0  0  0  0  0
    3.0372   25.5500    9.2783 C   0  0  0  0  0  0  0  0  0  0  0  0
    2.8416   27.1124   14.1295 C   0  0  0  0  0  0  0  0  0  0  0  0
    3.3595   25.5852   16.7386 C   0  0  0  0  0  0  0  0  0  0  0  0
    3.3344   26.8973   11.2970 C   0  0  0  0  0  0  0  0  0  0  0  0
    3.4975   26.7025    9.9240 C   0  0  0  0  0  0  0  0  0  0  0  0
    2.0102   23.4680    9.4085 O   0  0  0  0  0  0  0  0  0  0  0  0
    2.0987   23.5790   12.2219 O   0  0  0  0  0  0  0  0  0  0  0  0
    2.4779   25.9692   13.3923 O   0  0  0  0  0  0  0  0  0  0  0  0
    3.6893   25.1780   15.4555 O   0  0  0  0  0  0  0  0  0  0  0  0
    3.0640   26.9897   16.6432 N   0  0  0  0  0  0  0  0  0  0  0  0
  1  3  1  0
  1  4  1  0
  1 11  1  1
  2  6  1  0
  2 14  1  0
  3  5  2  0
  3 10  1  0
  4  8  2  0
  4 12  1  0
  5  9  1  0
  6 12  1  0
  7 13  1  0
  7 14  1  0
  8  9  1  0
M  END
$$$$

     RDKit          3D

 11 11  0  0  0  0  0  0  0  0999 V2000
    2.1219   24.2276    9.0104 C   0  0  0  0  0  0  0  0  0  0  0  0
    2.4829   24.5565   11.4523 C   0  0  0  0  0  0  0  0  0  0  0  0
    2.5512   25.0426   10.1294 C   0  0  0  0  0  0  0  0  0  0  0  0
    2.7132   27.1892   14.4206 C   0  0  0  0  0  0  0  0  0  0  0  0
    3.0287   25.7427   12.2542 C   0  0  2  0  0  0  0  0  0  0  0  0
    3.0699   25.9068   13.6457 C   0  0  0  0  0  0  0  0  0  0  0  0
    3.0374   26.3785   10.0436 C   0  0  0  0  0  0  0  0  0  0  0  0
    3.3799   26.9355   11.2944 C   0  0  0  0  0  0  0  0  0  0  0  0
    3.3199   27.1317   15.7745 C   0  0  0  0  0  0  0  0  0  0  0  0
    1.1294   23.8417    8.9592 O   0  0  0  0  0  0  0  0  0  0  0  0
    2.9616   24.8778   14.1700 O   0  0  0  0  0  0  0  0  0  0  0  0
  1  3  1  0
  1 10  2  0
  2  3  1  0
  2  5  1  0
  3  7  1  0
  4  6  1  0
  4  9  1  0
  5  6  1  1
  5  8  1  0
  6 11  2  0
  7  8  1  0
M  END
$$$$

     RDKit          3D

 15 17  0  0  0  0  0  0  0  0999 V2000
    2.4193   24.2328   10.8004 C   0  0  0  0  0  0  0  0  0  0  0  0
    2.6034   24.7558   13.1209 C   0  0  0  0  0  0  0  0  0  0  0  0
    3.0207   25.4501   10.4442 C   0  0  0  0  0  0  0  0  0  0  0  0
    3.1398   26.0273   12.8324 C   0  0  0  0  0  0  0  0  0  0  0  0
    3.3546   26.3613   11.4520 C   0  0  0  0  0  0  0  0  0  0  0  0
    3.1605   26.5416   15.2087 C   0  0  0  0  0  0  0  0  0  0  0  0
    3.4781   26.9732   13.8697 C   0  0  0  0  0  0  0  0  0  0  0  0
    3.4594   27.4114   16.3862 C   0  0  0  0  0  0  0  0  0  0  0  0
    3.9089   27.2229    9.4653 C   0  0  0  0  0  0  0  0  0  0  0  0
    3.8577   27.5433   10.8523 C   0  0  0  0  0  0  0  0  0  0  0  0
    1.9931   23.4857    9.7393 N   0  0  0  0  0  0  0  0  0  0  0  0
    2.1865   23.9083   12.1172 N   0  0  0  0  0  0  0  0  0  0  0  0
    2.4422   24.4249   14.4299 N   0  0  0  0  0  0  0  0  0  0  0  0
    2.6874   25.3191   15.4314 N   0  0  0  0  0  0  0  0  0  0  0  0
    3.4019   25.9576    9.2520 N   0  0  0  0  0  0  0  0  0  0  0  0
  1  3  1  0
  1 11  2  0
  1 12  1  0
  2  4  1  0
  2 12  1  0
  2 13  2  0
  3  5  2  0
  3 15  1  0
  4  5  1  0
  4  7  1  0
  5 10  1  0
  6  7  1  0
  6  8  1  0
  6 14  2  0
  9 10  1  0
  9 15  1  0
 13 14  1  0
M  END
$$$$

     RDKit          3D

 14 15  0  0  0  0  0  0  0  0999 V2000
    1.8408   26.7395   14.1239 C   0  0  0  0  0  0  0  0  0  0  0  0
    1.8567   27.1060   15.4563 C   0  0  0  0  0  0  0  0  0  0  0  0
    2.7810   24.8256   11.6170 C   0  0  0  0  0  0  0  0  0  0  0  0
    3.0459   24.5100   10.2920 C   0  0  0  0  0  0  0  0  0  0  0  0
    3.0662   26.1193   12.0690 C   0  0  0  0  0  0  0  0  0  0  0  0
    2.9935   26.4870   13.4563 C   0  0  0  0  0  0  0  0  0  0  0  0
    3.0681   27.1463   16.1236 C   0  0  0  0  0  0  0  0  0  0  0  0
    3.4007   25.4939    9.3854 C   0  0  0  0  0  0  0  0  0  0  0  0
    3.5965   26.7891    9.8339 C   0  0  0  0  0  0  0  0  0  0  0  0
    3.4366   27.1144   11.1888 C   0  0  0  0  0  0  0  0  0  0  0  0
    4.1969   26.6623   14.1204 C   0  0  0  0  0  0  0  0  0  0  0  0
    4.2536   27.0169   15.4321 C   0  0  0  0  0  0  0  0  0  0  0  0
    2.2827   23.8544   12.3790 O   0  0  0  0  0  0  0  0  0  0  0  0
    2.8458   23.2668    9.8975 O   0  0  0  0  0  0  0  0  0  0  0  0
  1  2  2  0
  1  6  1  0
  2  7  1  0
  3  4  2  0
  3  5  1  0
  3 13  1  0
  4  8  1  0
  4 14  1  0
  5  6  1  0
  5 10  2  0
  6 11  2  0
  7 12  2  0
  8  9  2  0
  9 10  1  0
 11 12  1  0
M  END
$$$$

     RDKit          3D

 11 11  0  0  0  0  0  0  0  0999 V2000
    2.1888   26.9492   14.0141 C   0  0  0  0  0  0  0  0  0  0  0  0
    2.6359   26.9539   15.4662 C   0  0  0  0  0  0  0  0  0  0  0  0
    3.2675   25.8747   11.2854 C   0  0  0  0  0  0  0  0  0  0  0  0
    3.5776   24.8340   10.4335 C   0  0  0  0  0  0  0  0  0  0  0  0
    3.6698   25.8652   12.6154 C   0  0  0  0  0  0  0  0  0  0  0  0
    4.2483   23.7000   10.9253 C   0  0  0  0  0  0  0  0  0  0  0  0
    4.3412   24.7627   13.1237 C   0  0  0  0  0  0  0  0  0  0  0  0
    4.6508   23.6777   12.2704 C   0  0  0  0  0  0  0  0  0  0  0  0
    3.1934   24.9182    9.1446 O   0  0  0  0  0  0  0  0  0  0  0  0
    3.3982   27.0234   13.3446 O   0  0  0  0  0  0  0  0  0  0  0  0
    4.3065   22.6544   10.0530 O   0  0  0  0  0  0  0  0  0  0  0  0
  1  2  1  0
  1 10  1  0
  3  4  2  0
  3  5  1  0
  4  6  1  0
  4  9  1  0
  5  7  2  0
  5 10  1  0
  6  8  2  0
  6 11  1  0
  7  8  1  0
M  END
$$$$

     RDKit          3D

 13 13  0  0  0  0  0  0  0  0999 V2000
    2.6224   24.6476   12.9237 C   0  0  0  0  0  0  0  0  0  0  0  0
    2.6154   25.0895   15.2751 C   0  0  0  0  0  0  0  0  0  0  0  0
    2.7494   24.5228    9.3258 C   0  0  1  0  0  0  0  0  0  0  0  0
    2.8450   24.8236   10.6879 C   0  0  0  0  0  0  0  0  0  0  0  0
    3.0519   25.9247   12.7043 C   0  0  0  0  0  0  0  0  0  0  0  0
    3.1960   26.8132   13.7506 C   0  0  0  0  0  0  0  0  0  0  0  0
    3.2779   27.0168   16.2347 C   0  0  0  0  0  0  0  0  0  0  0  0
    3.7177   23.9233    8.7854 O   0  0  0  0  0  0  0  0  0  0  0  0
    2.4311   23.4335    8.6614 N   0  0  0  0  0  0  0  0  0  0  0  0
    2.4354   24.0310   11.6964 N   0  0  0  0  0  0  0  0  0  0  0  0
    2.4150   24.2120   14.2336 N   0  0  0  0  0  0  0  0  0  0  0  0
    3.0050   26.3733   15.0294 N   0  0  0  0  0  0  0  0  0  0  0  0
    3.4326   26.1905   11.0925 S   0  0  0  0  0  0  0  0  0  0  0  0
  1  5  2  0
  1 10  1  0
  1 11  1  0
  2 11  2  0
  2 12  1  0
  3  4  1  0
  3  8  1  0
  3  9  1  1
  4 10  1  0
  4 13  1  0
  5  6  1  0
  6 12  1  0
  7 12  1  0
M  END
$$$$

     RDKit          3D

 11 12  0  0  0  0  0  0  0  0999 V2000
    2.3986   26.4367   13.3687 C   0  0  0  0  0  0  0  0  0  0  0  0
    2.2940   27.1136   14.5742 C   0  0  0  0  0  0  0  0  0  0  0  0
    2.6564   25.1142   13.3218 C   0  0  0  0  0  0  0  0  0  0  0  0
    2.4589   26.4117   15.7471 C   0  0  0  0  0  0  0  0  0  0  0  0
    2.8891   24.4941   12.0485 C   0  0  0  0  0  0  0  0  0  0  0  0
    2.7909   24.4050   14.5105 C   0  0  0  0  0  0  0  0  0  0  0  0
    2.7069   25.0443   15.7305 C   0  0  0  0  0  0  0  0  0  0  0  0
    3.1659   24.2006    9.8665 C   0  0  0  0  0  0  0  0  0  0  0  0
    2.7410   25.0762   10.8451 N   0  0  0  0  0  0  0  0  0  0  0  0
    3.5135   23.3238   11.8829 N   0  0  0  0  0  0  0  0  0  0  0  0
    3.8494   23.2488   10.5284 N   0  0  0  0  0  0  0  0  0  0  0  0
  1  2  2  0
  1  3  1  0
  2  4  1  0
  3  5  1  0
  3  6  2  0
  4  7  2  0
  5  9  2  0
  5 10  1  0
  6  7  1  0
  8  9  1  0
  8 11  1  0
 10 11  1  0
M  END
$$$$

     RDKit          3D

 10 10  0  0  0  0  0  0  0  0999 V2000
    1.9627   25.9660   15.5309 C   0  0  0  0  0  0  0  0  0  0  0  0
    2.2116   25.5212   14.1149 C   0  0  0  0  0  0  0  0  0  0  0  0
    2.4921   24.5548   11.6654 C   0  0  0  0  0  0  0  0  0  0  0  0
    2.9027   25.8939   11.8608 C   0  0  0  0  0  0  0  0  0  0  0  0
    2.6913   26.4094   13.1330 C   0  0  0  0  0  0  0  0  0  0  0  0
    2.9962   24.4801    9.3298 C   0  0  0  0  0  0  0  0  0  0  0  0
    3.2161   26.5566   16.0855 C   0  0  0  0  0  0  0  0  0  0  0  0
    2.1363   23.8643   12.6677 O   0  0  0  0  0  0  0  0  0  0  0  0
    2.0695   24.2906   13.8607 N   0  0  0  0  0  0  0  0  0  0  0  0
    2.4800   23.8656   10.5049 N   0  0  0  0  0  0  0  0  0  0  0  0
  1  2  1  0
  1  7  1  0
  2  5  1  0
  2  9  2  0
  3  4  1  0
  3  8  1  0
  3 10  2  3
  4  5  2  0
  6 10  1  0
  8  9  1  0
M  END
$$$$

     RDKit          3D

 15 16  0  0  0  0  0  0  0  0999 V2000
    2.3716   25.8378   13.5727 C   0  0  1  0  0  0  0  0  0  0  0  0
    2.5344   24.4805   11.4731 C   0  0  0  0  0  0  0  0  0  0  0  0
    2.5316   27.2710   15.4562 C   0  0  0  0  0  0  0  0  0  0  0  0
    2.8375   24.4005   10.0969 C   0  0  0  0  0  0  0  0  0  0  0  0
    2.7240   25.7262   12.1366 C   0  0  0  0  0  0  0  0  0  0  0  0
    3.4074   25.0035   14.2550 C   0  0  0  0  0  0  0  0  0  0  0  0
    3.4066   25.5034    9.4226 C   0  0  0  0  0  0  0  0  0  0  0  0
    3.2829   26.8256   11.4370 C   0  0  0  0  0  0  0  0  0  0  0  0
    3.5206   26.3898   16.0615 C   0  0  0  0  0  0  0  0  0  0  0  0
    3.6389   26.6872   10.0924 C   0  0  0  0  0  0  0  0  0  0  0  0
    2.4750   23.3596    9.4683 O   0  0  0  0  0  0  0  0  0  0  0  0
    4.0053   25.3748   15.3088 O   0  0  0  0  0  0  0  0  0  0  0  0
    4.3015   27.7146    9.4394 O   0  0  0  0  0  0  0  0  0  0  0  0
    2.4374   27.1242   14.0198 N   0  0  0  0  0  0  0  0  0  0  0  0
    3.2165   26.1840   17.3278 N   0  0  0  0  0  0  0  0  0  0  0  0
  1  5  1  6
  1  6  1  0
  1 14  1  0
  2  4  1  0
  2  5  1  0
  3  9  1  0
  3 14  1  0
  4  7  1  0
  4 11  2  0
  5  8  2  0
  6 12  1  0
  7 10  2  0
  8 10  1  0
  9 12  1  0
  9 15  2  0
 10 13  1  0
M  END
$$$$

     RDKit          3D

 11 11  0  0  0  0  0  0  0  0999 V2000
    2.4025   24.9518   13.1056 C   0  0  0  0  0  0  0  0  0  0  0  0
    2.4913   23.8849    9.5749 C   0  0  0  0  0  0  0  0  0  0  0  0
    2.6401   24.7228   10.7860 C   0  0  0  0  0  0  0  0  0  0  0  0
    2.8969   26.2847   13.0296 C   0  0  0  0  0  0  0  0  0  0  0  0
    3.1411   26.0174   10.6862 C   0  0  0  0  0  0  0  0  0  0  0  0
    2.9592   27.1346   14.2644 C   0  0  0  0  0  0  0  0  0  0  0  0
    3.2348   26.8289   11.7972 C   0  0  0  0  0  0  0  0  0  0  0  0
    1.3895   23.9088    8.9954 O   0  0  0  0  0  0  0  0  0  0  0  0
    3.4905   23.2288    9.1671 O   0  0  0  0  0  0  0  0  0  0  0  0
    2.2970   24.2024   11.9539 N   0  0  0  0  0  0  0  0  0  0  0  0
    3.9856   26.7708   15.3074 N   0  0  0  0  0  0  0  0  0  0  0  0
  1  4  2  0
  1 10  1  0
  2  3  1  0
  2  8  2  0
  2  9  1  0
  3  5  1  0
  3 10  2  0
  4  6  1  0
  4  7  1  0
  5  7  2  0
  6 11  1  0
M  END
$$$$

     RDKit          3D

 15 15  0  0  0  0  0  0  0  0999 V2000
    2.7268   23.4699    9.3699 C   0  0  0  0  0  0  0  0  0  0  0  0
    3.1393   24.9078   11.1774 C   0  0  0  0  0  0  0  0  0  0  0  0
    3.1157   26.0282   10.4169 C   0  0  0  0  0  0  0  0  0  0  0  0
    3.2171   27.1888   16.5750 C   0  0  0  0  0  0  0  0  0  0  0  0
    3.4273   25.2079   12.4703 C   0  0  2  0  0  0  0  0  0  0  0  0
    3.4725   27.0869   11.3227 C   0  0  0  0  0  0  0  0  0  0  0  0
    3.7952   25.9833   15.8230 C   0  0  2  0  0  0  0  0  0  0  0  0
    3.8415   26.4814   12.6121 C   0  0  0  0  0  0  0  0  0  0  0  0
    4.8478   26.2933   14.7866 C   0  0  0  0  0  0  0  0  0  0  0  0
    1.5753   23.7772    8.9175 O   0  0  0  0  0  0  0  0  0  0  0  0
    3.6542   22.7974    8.7772 O   0  0  0  0  0  0  0  0  0  0  0  0
    2.9283   23.6234   10.7585 N   0  0  0  0  0  0  0  0  0  0  0  0
    4.1105   25.1023   12.4695 N   0  0  0  0  0  0  0  0  0  0  0  0
    4.3818   27.0585   13.6603 N   0  0  0  0  0  0  0  0  0  0  0  0
    2.0808   26.0076   15.2046 S   0  0  0  0  0  0  0  0  0  0  0  0
  1 10  2  0
  1 11  1  0
  1 12  1  0
  2  3  1  0
  2  5  1  0
  2 12  2  3
  3  6  1  0
  7  4  1  1
  5  8  1  0
  5 13  1  6
  6  8  1  0
  7  9  1  0
  7 15  1  0
  8 14  2  3
  9 14  1  0
M  END
$$$$

     RDKit          3D

 13 13  0  0  0  0  0  0  0  0999 V2000
    2.1016   27.0246   14.3161 C   0  0  0  0  0  0  0  0  0  0  0  0
    2.5939   27.1119   15.6929 C   0  0  0  0  0  0  0  0  0  0  0  0
    3.0205   24.5643   10.4707 C   0  0  0  0  0  0  0  0  0  0  0  0
    2.9339   24.8589   11.8541 C   0  0  0  0  0  0  0  0  0  0  0  0
    3.1519   26.2226   12.2299 C   0  0  0  0  0  0  0  0  0  0  0  0
    3.1889   25.5575    9.5396 C   0  0  0  0  0  0  0  0  0  0  0  0
    3.3023   26.5802   13.6169 C   0  0  1  0  0  0  0  0  0  0  0  0
    3.3294   26.8697    9.9740 C   0  0  0  0  0  0  0  0  0  0  0  0
    3.2931   27.1977   11.2825 C   0  0  0  0  0  0  0  0  0  0  0  0
    4.0898   27.1879   15.5548 C   0  0  0  0  0  0  0  0  0  0  0  0
    2.6509   23.9017   12.8279 O   0  0  0  0  0  0  0  0  0  0  0  0
    2.9306   23.2942   10.1204 O   0  0  0  0  0  0  0  0  0  0  0  0
    4.3139   27.0736   14.1451 O   0  0  0  0  0  0  0  0  0  0  0  0
  1  2  1  0
  1  7  1  0
  2 10  1  0
  3  4  2  0
  3  6  1  0
  3 12  1  0
  4  5  1  0
  4 11  1  0
  5  7  1  0
  5  9  2  0
  6  8  2  0
  7 13  1  6
  8  9  1  0
M  END
$$$$

     RDKit          3D

 15 16  0  0  0  0  0  0  0  0999 V2000
    2.3331   24.3294   11.9976 C   0  0  0  0  0  0  0  0  0  0  0  0
    2.4059   25.2208   13.0052 C   0  0  0  0  0  0  0  0  0  0  0  0
    2.5981   26.7993   15.2072 C   0  0  1  0  0  0  0  0  0  0  0  0
    2.6627   23.6900    9.6188 C   0  0  0  0  0  0  0  0  0  0  0  0
    2.7576   24.6535   10.7336 C   0  0  0  0  0  0  0  0  0  0  0  0
    3.0109   26.4629   12.8831 C   0  0  0  0  0  0  0  0  0  0  0  0
    3.3935   25.9274   10.4918 C   0  0  0  0  0  0  0  0  0  0  0  0
    3.4822   26.8621   11.5638 C   0  0  0  0  0  0  0  0  0  0  0  0
    4.0598   26.6132   15.1987 C   0  0  0  0  0  0  0  0  0  0  0  0
    5.4634   26.7308   14.6024 C   0  0  0  0  0  0  0  0  0  0  0  0
    6.1201   25.5476   14.2939 C   0  0  0  0  0  0  0  0  0  0  0  0
    1.5374   23.6493    8.9235 O   0  0  0  0  0  0  0  0  0  0  0  0
    3.0324   27.2751   14.0089 O   0  0  0  0  0  0  0  0  0  0  0  0
    3.6491   22.8319    9.5642 O   0  0  0  0  0  0  0  0  0  0  0  0
    2.0353   24.9838   14.7231 S   0  0  0  0  0  0  0  0  0  0  0  0
  1  2  2  0
  1  5  1  0
  2  6  1  0
  2 15  1  0
  3  9  1  1
  3 13  1  0
  3 15  1  0
  4  5  1  0
  4 12  2  0
  4 14  1  0
  5  7  2  0
  6  8  2  0
  6 13  1  0
  7  8  1  0
  9 10  1  0
 10 11  1  0
M  END
$$$$

     RDKit          3D

 14 15  0  0  0  0  0  0  0  0999 V2000
    2.4078   24.7131   14.5548 C   0  0  0  0  0  0  0  0  0  0  0  0
    2.6507   24.2511   10.0453 C   0  0  0  0  0  0  0  0  0  0  0  0
    2.5135   24.2564   11.4299 C   0  0  0  0  0  0  0  0  0  0  0  0
    2.6446   25.6296   13.5367 C   0  0  0  0  0  0  0  0  0  0  0  0
    2.8249   25.4680   12.1154 C   0  0  0  0  0  0  0  0  0  0  0  0
    2.6781   26.6638   15.6324 C   0  0  0  0  0  0  0  0  0  0  0  0
    2.8949   27.5329   16.7626 C   0  0  0  0  0  0  0  0  0  0  0  0
    3.2378   26.5696   11.4001 C   0  0  0  0  0  0  0  0  0  0  0  0
    3.4283   26.5059   10.0397 C   0  0  0  0  0  0  0  0  0  0  0  0
    4.0395   27.6981    9.3828 C   0  0  0  0  0  0  0  0  0  0  0  0
    2.4237   25.3943   15.7373 O   0  0  0  0  0  0  0  0  0  0  0  0
    2.4012   23.1566    9.2963 N   0  0  0  0  0  0  0  0  0  0  0  0
    3.0414   25.3942    9.3773 N   0  0  0  0  0  0  0  0  0  0  0  0
    2.6701   27.1303   14.1000 S   0  0  0  0  0  0  0  0  0  0  0  0
  1  4  1  0
  1 11  1  0
  2  3  1  0
  2 12  2  0
  2 13  1  0
  3  5  1  0
  4  5  1  0
  4 14  1  0
  5  8  2  0
  6  7  1  0
  6 11  1  0
  6 14  1  0
  8  9  1  0
  9 10  1  0
  9 13  2  0
M  END
$$$$

     RDKit          3D

 11 11  0  0  0  0  0  0  0  0999 V2000
    1.5684   25.8105   15.3748 C   0  0  0  0  0  0  0  0  0  0  0  0
    2.4728   24.5439    9.1392 C   0  0  0  0  0  0  0  0  0  0  0  0
    2.6512   24.6412   12.8588 C   0  0  0  0  0  0  0  0  0  0  0  0
    2.5524   26.6147   14.5383 C   0  0  0  0  0  0  0  0  0  0  0  0
    2.7205   24.1154   11.6125 C   0  0  0  0  0  0  0  0  0  0  0  0
    2.7811   26.0242   13.1294 C   0  0  1  0  0  0  0  0  0  0  0  0
    2.9491   25.0170   10.4981 C   0  0  2  0  0  0  0  0  0  0  0  0
    3.2450   26.3868   10.7626 C   0  0  0  0  0  0  0  0  0  0  0  0
    3.2003   26.8586   12.0566 C   0  0  0  0  0  0  0  0  0  0  0  0
    3.8796   26.7533   15.2438 C   0  0  0  0  0  0  0  0  0  0  0  0
    1.1291   23.6524    8.9120 O   0  0  0  0  0  0  0  0  0  0  0  0
  1  4  1  0
  7  2  1  6
  2 11  1  0
  3  5  2  0
  3  6  1  0
  6  4  1  1
  4 10  1  0
  5  7  1  0
  6  9  1  0
  7  8  1  0
  8  9  2  0
M  END
$$$$

     RDKit          3D

 16 18  0  0  0  0  0  0  0  0999 V2000
    2.3076   26.5745   13.6675 C   0  0  0  0  0  0  0  0  0  0  0  0
    2.1862   27.1090   14.9851 C   0  0  0  0  0  0  0  0  0  0  0  0
    2.5358   24.7894    9.7832 C   0  0  0  0  0  0  0  0  0  0  0  0
    2.5367   25.4095   11.0161 C   0  0  0  0  0  0  0  0  0  0  0  0
    2.7287   26.4042   16.1022 C   0  0  0  0  0  0  0  0  0  0  0  0
    3.1563   23.5463    9.5738 C   0  0  0  0  0  0  0  0  0  0  0  0
    3.0891   24.7304   12.1220 C   0  0  0  0  0  0  0  0  0  0  0  0
    2.9965   25.3725   13.4809 C   0  0  0  0  0  0  0  0  0  0  0  0
    3.3784   25.1565   15.8729 C   0  0  0  0  0  0  0  0  0  0  0  0
    3.4846   24.6343   14.5511 C   0  0  0  0  0  0  0  0  0  0  0  0
    3.5271   24.6493   18.1747 C   0  0  0  0  0  0  0  0  0  0  0  0
    3.7699   22.9132   10.6651 C   0  0  0  0  0  0  0  0  0  0  0  0
    3.7583   23.5252   11.9442 C   0  0  0  0  0  0  0  0  0  0  0  0
    4.4027   22.8630   13.0995 C   0  0  0  0  0  0  0  0  0  0  0  0
    3.9184   24.4197   16.8857 O   0  0  0  0  0  0  0  0  0  0  0  0
    4.2065   23.4284   14.3850 N   0  0  0  0  0  0  0  0  0  0  0  0
  1  2  2  0
  1  8  1  0
  2  5  1  0
  3  4  2  0
  3  6  1  0
  4  7  1  0
  5  9  2  0
  6 12  2  0
  7  8  2  0
  7 13  1  0
  8 10  1  0
  9 10  1  0
  9 15  1  0
 10 16  2  0
 11 15  1  0
 12 13  1  0
 13 14  2  0
 14 16  1  0
M  END
$$$$

     RDKit          3D

 11 11  0  0  0  0  0  0  0  0999 V2000
    2.0187   26.5804   14.4492 C   0  0  0  0  0  0  0  0  0  0  0  0
    2.5444   24.1771   10.5689 C   0  0  0  0  0  0  0  0  0  0  0  0
    2.6401   24.5613   11.9064 C   0  0  0  0  0  0  0  0  0  0  0  0
    2.7871   25.1350    9.5668 C   0  0  0  0  0  0  0  0  0  0  0  0
    2.9394   25.8778   12.2002 C   0  0  0  0  0  0  0  0  0  0  0  0
    3.0833   26.3092   13.5875 C   0  0  0  0  0  0  0  0  0  0  0  0
    3.0959   26.3537   15.9138 C   0  0  0  0  0  0  0  0  0  0  0  0
    3.1387   26.4262    9.8930 C   0  0  0  0  0  0  0  0  0  0  0  0
    3.2048   26.7981   11.2082 C   0  0  0  0  0  0  0  0  0  0  0  0
    2.4324   23.7078   12.8565 O   0  0  0  0  0  0  0  0  0  0  0  0
    2.8603   26.5553   17.0593 O   0  0  0  0  0  0  0  0  0  0  0  0
  1  6  1  0
  1  7  1  0
  2  3  2  0
  2  4  1  0
  3  5  1  0
  3 10  1  0
  4  8  2  0
  5  6  1  0
  5  9  2  0
  7 11  2  0
  8  9  1  0
M  END
$$$$

     RDKit          3D

 13 14  0  0  0  0  0  0  0  0999 V2000
    2.3443   27.0475   13.4528 C   0  0  0  0  0  0  0  0  0  0  0  0
    2.5082   24.3930   11.0983 C   0  0  0  0  0  0  0  0  0  0  0  0
    2.4348   27.3543   14.8359 C   0  0  0  0  0  0  0  0  0  0  0  0
    2.7210   24.2028    9.7256 C   0  0  0  0  0  0  0  0  0  0  0  0
    2.9508   25.6084   11.6013 C   0  0  0  0  0  0  0  0  0  0  0  0
    2.9709   25.9067   13.0107 C   0  0  0  0  0  0  0  0  0  0  0  0
    3.3540   25.1713    8.9637 C   0  0  0  0  0  0  0  0  0  0  0  0
    3.1614   26.5409   15.6727 C   0  0  0  0  0  0  0  0  0  0  0  0
    3.6474   26.5312   10.8421 C   0  0  0  0  0  0  0  0  0  0  0  0
    3.8375   25.4162   15.1341 C   0  0  0  0  0  0  0  0  0  0  0  0
    3.7953   26.3627    9.5194 C   0  0  0  0  0  0  0  0  0  0  0  0
    3.2034   26.7649   17.0466 N   0  0  0  0  0  0  0  0  0  0  0  0
    3.6961   25.1019   13.7708 N   0  0  0  0  0  0  0  0  0  0  0  0
  1  3  2  0
  1  6  1  0
  2  4  2  0
  2  5  1  0
  3  8  1  0
  4  7  1  0
  5  6  1  0
  5  9  2  0
  6 13  2  0
  7 11  2  0
  8 10  2  0
  8 12  1  0
  9 11  1  0
 10 13  1  0
M  END
$$$$

     RDKit          3D

 13 14  0  0  0  0  0  0  0  0999 V2000
    2.1848   27.1097   15.3382 C   0  0  0  0  0  0  0  0  0  0  0  0
    3.1441   25.8583   10.9802 C   0  0  0  0  0  0  0  0  0  0  0  0
    3.3559   24.9594    9.9230 C   0  0  0  0  0  0  0  0  0  0  0  0
    3.3470   25.4286   12.2821 C   0  0  0  0  0  0  0  0  0  0  0  0
    3.1781   26.3113   13.4574 C   0  0  2  0  0  0  0  0  0  0  0  0
    3.5436   27.3706   15.4007 C   0  0  0  0  0  0  0  0  0  0  0  0
    3.8000   23.6668   10.2005 C   0  0  0  0  0  0  0  0  0  0  0  0
    3.7316   24.1395   12.5602 C   0  0  0  0  0  0  0  0  0  0  0  0
    3.9469   23.2431   11.5081 C   0  0  0  0  0  0  0  0  0  0  0  0
    4.1454   26.9526   14.1684 C   0  0  0  0  0  0  0  0  0  0  0  0
    4.0030   23.6938   13.8316 O   0  0  0  0  0  0  0  0  0  0  0  0
    4.4130   22.1148   11.8329 O   0  0  0  0  0  0  0  0  0  0  0  0
    2.0418   26.2924   14.1870 N   0  0  0  0  0  0  0  0  0  0  0  0
  1  6  1  0
  1 13  1  0
  2  3  1  0
  2  4  1  0
  3  7  2  0
  5  4  1  1
  4  8  2  0
  5 10  1  0
  5 13  1  0
  6 10  1  0
  7  9  1  0
  8  9  1  0
  8 11  1  0
  9 12  2  0
M  END
$$$$

     RDKit          3D

 13 14  0  0  0  0  0  0  0  0999 V2000
    2.0567   25.4817   15.6014 C   0  0  0  0  0  0  0  0  0  0  0  0
    2.3712   24.1137   12.1205 C   0  0  0  0  0  0  0  0  0  0  0  0
    2.5665   24.6230   10.8295 C   0  0  0  0  0  0  0  0  0  0  0  0
    2.5068   24.9749   13.2200 C   0  0  0  0  0  0  0  0  0  0  0  0
    2.8938   26.3336   13.0244 C   0  0  0  0  0  0  0  0  0  0  0  0
    2.7228   26.8160   15.4303 C   0  0  0  0  0  0  0  0  0  0  0  0
    2.9249   25.9283   10.6264 C   0  0  0  0  0  0  0  0  0  0  0  0
    3.1217   26.8129   11.7131 C   0  0  0  0  0  0  0  0  0  0  0  0
    1.2913   23.7673    8.8481 O   0  0  0  0  0  0  0  0  0  0  0  0
    3.3522   22.8325    9.3113 O   0  0  0  0  0  0  0  0  0  0  0  0
    2.3291   23.7402    9.6254 N   0  0  0  0  0  0  0  0  0  0  0  0
    2.2506   24.5470   14.5589 N   0  0  0  0  0  0  0  0  0  0  0  0
    3.0519   27.2102   14.0849 N   0  0  0  0  0  0  0  0  0  0  0  0
  1  6  1  0
  1 12  1  0
  2  3  1  0
  2  4  2  0
  3  7  2  0
  3 11  1  0
  4  5  1  0
  4 12  1  0
  5  8  1  0
  5 13  2  0
  6 13  1  0
  7  8  1  0
  9 11  1  0
 10 11  1  0
M  END
$$$$

     RDKit          3D

 10 10  0  0  0  0  0  0  0  0999 V2000
    2.4723   24.6906   12.1696 C   0  0  0  0  0  0  0  0  0  0  0  0
    2.8414   25.1414   13.4548 C   0  0  0  0  0  0  0  0  0  0  0  0
    2.8554   25.4067   11.0197 C   0  0  0  0  0  0  0  0  0  0  0  0
    3.6253   26.3097   13.5340 C   0  0  0  0  0  0  0  0  0  0  0  0
    3.6037   26.5470   11.1899 C   0  0  0  0  0  0  0  0  0  0  0  0
    3.9877   26.9738   12.4143 C   0  0  0  0  0  0  0  0  0  0  0  0
    1.8874   25.3643   15.5662 O   0  0  0  0  0  0  0  0  0  0  0  0
    2.5625   25.0077    9.7400 O   0  0  0  0  0  0  0  0  0  0  0  0
    3.2758   23.6276   15.2573 O   0  0  0  0  0  0  0  0  0  0  0  0
    2.4796   24.5335   14.6695 N   0  0  0  0  0  0  0  0  0  0  0  0
  1  2  2  0
  1  3  1  0
  2  4  1  0
  2 10  1  0
  3  5  2  0
  3  8  1  0
  4  6  2  0
  5  6  1  0
  7 10  1  0
  9 10  1  0
M  END
$$$$

     RDKit          3D

  9  8  0  0  0  0  0  0  0  0999 V2000
    2.9977   25.6448   15.3054 C   0  0  0  0  0  0  0  0  0  0  0  0
    3.1601   24.3403   11.0965 C   0  0  1  0  0  0  0  0  0  0  0  0
    3.2608   25.7965   11.6347 C   0  0  0  0  0  0  0  0  0  0  0  0
    3.7565   25.5351   13.0678 C   0  0  0  0  0  0  0  0  0  0  0  0
    4.1712   23.4251   11.7315 C   0  0  0  0  0  0  0  0  0  0  0  0
    1.9157   24.1159   11.4872 O   0  0  0  0  0  0  0  0  0  0  0  0
    2.8925   26.5755   16.3840 O   0  0  0  0  0  0  0  0  0  0  0  0
    3.1057   26.2755   14.0538 O   0  0  0  0  0  0  0  0  0  0  0  0
    3.7002   22.1929   12.0887 O   0  0  0  0  0  0  0  0  0  0  0  0
  1  7  1  0
  1  8  1  0
  2  3  1  0
  2  5  1  0
  2  6  1  1
  3  4  1  0
  4  8  1  0
  5  9  1  0
M  END
$$$$

     RDKit          3D

 14 15  0  0  0  0  0  0  0  0999 V2000
    2.6176   25.7211   14.5036 C   0  0  1  0  0  0  0  0  0  0  0  0
    2.4258   27.0138   15.2101 C   0  0  0  0  0  0  0  0  0  0  0  0
    2.7028   24.4811   12.2759 C   0  0  0  0  0  0  0  0  0  0  0  0
    2.8944   25.6574   13.0203 C   0  0  0  0  0  0  0  0  0  0  0  0
    3.1269   24.4366   10.9110 C   0  0  0  0  0  0  0  0  0  0  0  0
    2.9721   26.7856   16.6274 C   0  0  0  0  0  0  0  0  0  0  0  0
    3.6251   25.5618   10.2864 C   0  0  0  0  0  0  0  0  0  0  0  0
    3.4327   25.4730   16.6434 C   0  0  0  0  0  0  0  0  0  0  0  0
    3.4403   26.7787   12.3825 C   0  0  0  0  0  0  0  0  0  0  0  0
    3.7667   26.7131   11.0436 C   0  0  0  0  0  0  0  0  0  0  0  0
    3.0043   23.2691   10.2670 O   0  0  0  0  0  0  0  0  0  0  0  0
    3.9948   25.6331    8.9312 O   0  0  0  0  0  0  0  0  0  0  0  0
    3.4864   24.9994   15.3425 N   0  0  0  0  0  0  0  0  0  0  0  0
    3.8115   24.5977   17.6380 N   0  0  0  0  0  0  0  0  0  0  0  0
  1  2  1  0
  1  4  1  6
  1 13  1  0
  2  6  1  0
  3  4  2  0
  3  5  1  0
  4  9  1  0
  5  7  2  0
  5 11  1  0
  6  8  1  0
  7 10  1  0
  7 12  1  0
  8 13  1  0
  8 14  2  0
  9 10  2  0
M  END
$$$$

     RDKit          3D

 18 20  0  0  0  0  0  0  0  0999 V2000
    2.1329   23.6228    9.0732 C   0  0  0  0  0  0  0  0  0  0  0  0
    2.4033   26.7356   15.6960 C   0  0  0  0  0  0  0  0  0  0  0  0
    2.3970   27.2259   14.4110 C   0  0  0  0  0  0  0  0  0  0  0  0
    2.6561   26.3597   13.3736 C   0  0  0  0  0  0  0  0  0  0  0  0
    2.6930   23.6202   10.4141 C   0  0  0  0  0  0  0  0  0  0  0  0
    2.7002   25.3697   15.9747 C   0  0  0  0  0  0  0  0  0  0  0  0
    3.0791   23.0510    8.1292 C   0  0  0  0  0  0  0  0  0  0  0  0
    3.0603   24.2123   12.4591 C   0  0  0  0  0  0  0  0  0  0  0  0
    2.9507   24.5013   14.9090 C   0  0  0  0  0  0  0  0  0  0  0  0
    2.9106   25.0170   13.6143 C   0  0  0  0  0  0  0  0  0  0  0  0
    3.7778   24.3993   17.8910 C   0  0  0  0  0  0  0  0  0  0  0  0
    4.0116   23.5693   10.6425 C   0  0  0  0  0  0  0  0  0  0  0  0
    4.4003   23.2071    8.5117 C   0  0  0  0  0  0  0  0  0  0  0  0
    2.6502   24.9183   17.2399 O   0  0  0  0  0  0  0  0  0  0  0  0
    2.1480   24.0480   11.5528 N   0  0  0  0  0  0  0  0  0  0  0  0
    2.6347   26.8794   12.0976 N   0  0  0  0  0  0  0  0  0  0  0  0
    4.2625   23.9000   11.9724 N   0  0  0  0  0  0  0  0  0  0  0  0
    4.8754   23.4902    9.6748 N   0  0  0  0  0  0  0  0  0  0  0  0
  1  5  1  0
  1  7  1  0
  2  3  2  0
  2  6  1  0
  3  4  1  0
  4 10  2  0
  4 16  1  0
  5 12  2  0
  5 15  1  0
  6  9  2  0
  6 14  1  0
  7 13  1  0
  8 10  1  0
  8 15  2  0
  8 17  1  0
  9 10  1  0
 11 14  1  0
 12 17  1  0
 12 18  1  0
 13 18  2  0
M  END
$$$$

     RDKit          3D

 11 11  0  0  0  0  0  0  0  0999 V2000
    2.3647   26.8250   15.3727 C   0  0  0  0  0  0  0  0  0  0  0  0
    2.7263   23.8732   11.9210 C   0  0  0  0  0  0  0  0  0  0  0  0
    2.8544   24.5477   13.1496 C   0  0  0  0  0  0  0  0  0  0  0  0
    3.1231   23.6570    9.4917 C   0  0  0  0  0  0  0  0  0  0  0  0
    3.0641   24.4857   10.7332 C   0  0  0  0  0  0  0  0  0  0  0  0
    3.3689   25.8476   10.7098 C   0  0  0  0  0  0  0  0  0  0  0  0
    3.2898   25.8865   13.1750 C   0  0  0  0  0  0  0  0  0  0  0  0
    3.5801   26.5102   11.9193 C   0  0  0  0  0  0  0  0  0  0  0  0
    3.5685   26.6661   14.4568 C   0  0  2  0  0  0  0  0  0  0  0  0
    3.5959   26.5163    9.5801 O   0  0  0  0  0  0  0  0  0  0  0  0
    4.6082   25.9147   15.2480 N   0  0  0  0  0  0  0  0  0  0  0  0
  9  1  1  1
  2  3  2  0
  2  5  1  0
  3  7  1  0
  4  5  1  0
  5  6  2  0
  6  8  1  0
  6 10  1  0
  7  8  2  0
  7  9  1  0
  9 11  1  0
M  END
$$$$

     RDKit          3D

 11 12  0  0  0  0  0  0  0  0999 V2000
    2.6430   24.9006   10.3940 C   0  0  0  0  0  0  0  0  0  0  0  0
    2.4300   24.7412   12.5625 C   0  0  0  0  0  0  0  0  0  0  0  0
    2.5316   25.1784   14.8388 C   0  0  0  0  0  0  0  0  0  0  0  0
    2.8855   26.0324   12.2792 C   0  0  0  0  0  0  0  0  0  0  0  0
    3.1388   26.9104   13.3388 C   0  0  0  0  0  0  0  0  0  0  0  0
    2.2492   24.0529   11.4012 N   0  0  0  0  0  0  0  0  0  0  0  0
    2.2286   24.3464   13.8499 N   0  0  0  0  0  0  0  0  0  0  0  0
    2.6607   24.6528    9.1068 N   0  0  0  0  0  0  0  0  0  0  0  0
    2.9979   26.1246   10.9137 N   0  0  0  0  0  0  0  0  0  0  0  0
    2.9839   26.4315   14.5919 N   0  0  0  0  0  0  0  0  0  0  0  0
    3.1635   27.3647   15.9966 Cl  0  0  0  0  0  0  0  0  0  0  0  0
  1  6  1  0
  1  8  2  0
  1  9  1  0
  2  4  1  0
  2  6  2  0
  2  7  1  0
  3  7  2  0
  3 10  1  0
  4  5  2  0
  4  9  1  0
  5 10  1  0
 10 11  1  0
M  END
$$$$

     RDKit          3D

  7  6  0  0  0  0  0  0  0  0999 V2000
    2.3795   24.3762   10.8457 C   0  0  0  0  0  0  0  0  0  0  0  0
    2.3795   26.3762   12.8457 C   0  0  0  0  0  0  0  0  0  0  0  0
    3.1295   26.6262   11.5957 C   0  0  0  0  0  0  0  0  0  0  0  0
    3.3795   25.3762   11.0957 C   0  0  0  0  0  0  0  0  0  0  0  0
    3.3795   26.8762   13.5957 C   0  0  0  0  0  0  0  0  0  0  0  0
    1.8795   23.6262   12.0957 O   0  0  0  0  0  0  0  0  0  0  0  0
    2.1295   23.6262    9.8457 O   0  0  0  0  0  0  0  0  0  0  0  0
  1  4  1  0
  1  6  2  0
  1  7  1  0
  2  3  1  0
  2  5  1  0
  3  4  1  0
M  END
$$$$

     RDKit          3D

 13 14  0  0  0  0  0  0  0  0999 V2000
    2.2579   24.9815   15.3172 C   0  0  0  0  0  0  0  0  0  0  0  0
    2.4279   24.8373   12.8885 C   0  0  0  0  0  0  0  0  0  0  0  0
    2.6944   24.6380   10.5495 C   0  0  0  0  0  0  0  0  0  0  0  0
    2.8768   26.2641   15.2755 C   0  0  0  0  0  0  0  0  0  0  0  0
    3.0405   26.1226   12.8675 C   0  0  0  0  0  0  0  0  0  0  0  0
    2.9232   27.1453   16.4373 C   0  0  0  0  0  0  0  0  0  0  0  0
    3.3203   25.9251   10.4688 C   0  0  0  0  0  0  0  0  0  0  0  0
    3.2407   26.8558   14.0675 C   0  0  0  0  0  0  0  0  0  0  0  0
    3.4862   26.6887   11.6399 C   0  0  0  0  0  0  0  0  0  0  0  0
    2.0443   24.3122   14.0999 N   0  0  0  0  0  0  0  0  0  0  0  0
    2.2164   24.1349   11.7316 N   0  0  0  0  0  0  0  0  0  0  0  0
    2.6249   23.8955    9.3664 N   0  0  0  0  0  0  0  0  0  0  0  0
    3.5808   22.9525    9.1724 N   0  0  0  0  0  0  0  0  0  0  0  0
  1  4  2  0
  1 10  1  0
  2  5  1  0
  2 10  2  0
  2 11  1  0
  3  7  1  0
  3 11  2  0
  3 12  1  0
  4  6  1  0
  4  8  1  0
  5  8  2  0
  5  9  1  0
  7  9  2  0
 12 13  1  0
M  END
$$$$

     RDKit          3D

 10 10  0  0  0  0  0  0  0  0999 V2000
    2.1407   26.9963   14.5586 C   0  0  0  0  0  0  0  0  0  0  0  0
    2.4622   24.8888   12.7068 C   0  0  0  0  0  0  0  0  0  0  0  0
    2.6824   24.1204    9.3065 C   0  0  0  0  0  0  0  0  0  0  0  0
    2.7569   27.1828   15.9087 C   0  0  0  0  0  0  0  0  0  0  0  0
    2.9369   26.0168   10.8941 C   0  0  0  0  0  0  0  0  0  0  0  0
    2.9451   27.1932   13.2629 C   0  0  0  0  0  0  0  0  0  0  0  0
    3.2473   22.9625    9.2434 O   0  0  0  0  0  0  0  0  0  0  0  0
    2.3814   24.0618   11.7075 N   0  0  0  0  0  0  0  0  0  0  0  0
    2.6768   24.6954   10.6141 N   0  0  0  0  0  0  0  0  0  0  0  0
    2.7996   26.1542   12.2807 N   0  0  0  0  0  0  0  0  0  0  0  0
  1  4  1  0
  1  6  1  0
  2  8  1  0
  2 10  1  0
  3  7  1  0
  3  9  1  0
  5  9  1  0
  5 10  1  0
  6 10  1  0
  8  9  1  0
M  END
$$$$

     RDKit          3D

 14 15  0  0  0  0  0  0  0  0999 V2000
    2.5255   23.8137    9.0844 C   0  0  0  0  0  0  0  0  0  0  0  0
    2.4631   24.1789   11.5642 C   0  0  0  0  0  0  0  0  0  0  0  0
    2.8205   24.6738   10.3189 C   0  0  0  0  0  0  0  0  0  0  0  0
    2.6927   24.8758   12.7238 C   0  0  0  0  0  0  0  0  0  0  0  0
    2.8392   24.9031   15.2325 C   0  0  1  0  0  0  0  0  0  0  0  0
    3.3417   25.9793   10.2430 C   0  0  0  0  0  0  0  0  0  0  0  0
    3.1989   26.1901   12.6928 C   0  0  0  0  0  0  0  0  0  0  0  0
    3.3733   26.9621   13.9983 C   0  0  0  0  0  0  0  0  0  0  0  0
    3.1620   27.0331   16.5328 C   0  0  0  0  0  0  0  0  0  0  0  0
    3.6446   22.9462    8.5887 C   0  0  0  0  0  0  0  0  0  0  0  0
    3.5536   26.2104   15.2697 C   0  0  1  0  0  0  0  0  0  0  0  0
    3.5212   26.7721   11.4193 C   0  0  0  0  0  0  0  0  0  0  0  0
    2.4313   24.3337   13.9022 O   0  0  0  0  0  0  0  0  0  0  0  0
    3.2843   23.8349   15.5821 O   0  0  0  0  0  0  0  0  0  0  0  0
  1  3  1  0
  1 10  1  0
  2  3  2  0
  2  4  1  0
  3  6  1  0
  4  7  2  0
  4 13  1  0
  5 11  1  0
  5 13  1  0
  5 14  1  6
  6 12  2  0
  7  8  1  0
  7 12  1  0
  8 11  1  0
 11  9  1  1
M  END
$$$$

     RDKit          3D

 11 11  0  0  0  0  0  0  0  0999 V2000
    3.1567   25.8816   10.4902 C   0  0  0  0  0  0  0  0  0  0  0  0
    3.1960   24.5013   10.5687 C   0  0  0  0  0  0  0  0  0  0  0  0
    3.6075   23.8842   11.7515 C   0  0  0  0  0  0  0  0  0  0  0  0
    3.5098   26.6737   11.5950 C   0  0  0  0  0  0  0  0  0  0  0  0
    3.8718   26.0206   12.7700 C   0  0  0  0  0  0  0  0  0  0  0  0
    3.9213   24.6439   12.8599 C   0  0  0  0  0  0  0  0  0  0  0  0
    4.2327   26.8130   14.0031 C   0  0  0  0  0  0  0  0  0  0  0  0
    1.5202   23.7165    8.8966 O   0  0  0  0  0  0  0  0  0  0  0  0
    3.7458   22.6882    8.9593 O   0  0  0  0  0  0  0  0  0  0  0  0
    5.7459   26.9221   14.1131 N   0  0  0  0  0  0  0  0  0  0  0  0
    2.8836   23.5662    9.2564 S   0  0  0  0  0  0  0  0  0  0  0  0
  1  2  2  0
  1  4  1  0
  2  3  1  0
  2 11  1  0
  3  6  2  0
  4  5  2  0
  5  6  1  0
  5  7  1  0
  7 10  1  0
  8 11  1  0
  9 11  1  0
M  END
$$$$

     RDKit          3D

 13 14  0  0  0  0  0  0  0  0999 V2000
    2.2951   24.4779   14.4503 C   0  0  0  0  0  0  0  0  0  0  0  0
    2.3462   25.3348   15.5297 C   0  0  0  0  0  0  0  0  0  0  0  0
    2.6040   24.9660   13.1598 C   0  0  0  0  0  0  0  0  0  0  0  0
    2.6426   26.6745   15.3551 C   0  0  0  0  0  0  0  0  0  0  0  0
    2.7244   23.8189    9.6440 C   0  0  0  0  0  0  0  0  0  0  0  0
    2.7728   24.6680   10.8332 C   0  0  0  0  0  0  0  0  0  0  0  0
    2.9404   26.3137   12.9978 C   0  0  0  0  0  0  0  0  0  0  0  0
    2.9265   27.1541   14.1106 C   0  0  0  0  0  0  0  0  0  0  0  0
    3.1653   25.9904   10.6328 C   0  0  0  0  0  0  0  0  0  0  0  0
    3.2251   26.8405   11.7064 C   0  0  0  0  0  0  0  0  0  0  0  0
    3.5817   22.9378    9.5996 O   0  0  0  0  0  0  0  0  0  0  0  0
    1.8217   23.9945    8.7590 N   0  0  0  0  0  0  0  0  0  0  0  0
    2.5331   24.1545   12.0724 N   0  0  0  0  0  0  0  0  0  0  0  0
  1  2  2  0
  1  3  1  0
  2  4  1  0
  3  7  2  0
  3 13  1  0
  4  8  2  0
  5  6  1  0
  5 11  2  0
  5 12  1  0
  6  9  1  0
  6 13  2  0
  7  8  1  0
  7 10  1  0
  9 10  2  0
M  END
$$$$

     RDKit          3D

 12 13  0  0  0  0  0  0  0  0999 V2000
    2.1124   27.2235   14.6486 C   0  0  0  0  0  0  0  0  0  0  0  0
    2.3683   26.6653   13.4120 C   0  0  0  0  0  0  0  0  0  0  0  0
    2.6474   25.2833   10.9806 C   0  0  0  0  0  0  0  0  0  0  0  0
    2.7662   24.5910    9.7787 C   0  0  0  0  0  0  0  0  0  0  0  0
    2.8389   25.3723   13.4030 C   0  0  0  0  0  0  0  0  0  0  0  0
    2.7285   25.2578   15.7077 C   0  0  0  0  0  0  0  0  0  0  0  0
    3.0562   24.6787   12.1468 C   0  0  0  0  0  0  0  0  0  0  0  0
    3.3552   23.3373    9.7939 C   0  0  0  0  0  0  0  0  0  0  0  0
    3.6978   23.4310   12.0961 C   0  0  0  0  0  0  0  0  0  0  0  0
    2.2825   26.5272   15.7617 N   0  0  0  0  0  0  0  0  0  0  0  0
    3.0435   24.6838   14.5632 N   0  0  0  0  0  0  0  0  0  0  0  0
    3.7995   22.8038   10.9093 N   0  0  0  0  0  0  0  0  0  0  0  0
  1  2  2  0
  1 10  1  0
  2  5  1  0
  3  4  2  0
  3  7  1  0
  4  8  1  0
  5  7  1  0
  5 11  2  0
  6 10  2  0
  6 11  1  0
  7  9  2  0
  8 12  2  0
  9 12  1  0
M  END
$$$$

     RDKit          3D

 10 10  0  0  0  0  0  0  0  0999 V2000
    2.2218   26.8680   15.2136 C   0  0  0  0  0  0  0  0  0  0  0  0
    2.4348   24.1306   11.7062 C   0  0  0  0  0  0  0  0  0  0  0  0
    2.5886   24.3439    9.1919 C   0  0  0  0  0  0  0  0  0  0  0  0
    2.6502   24.6532   12.9891 C   0  0  0  0  0  0  0  0  0  0  0  0
    2.8305   24.8528   10.5871 C   0  0  0  0  0  0  0  0  0  0  0  0
    3.3554   26.1307   10.7440 C   0  0  0  0  0  0  0  0  0  0  0  0
    3.1640   25.9189   13.1348 C   0  0  0  0  0  0  0  0  0  0  0  0
    3.5554   26.6725   12.0153 C   0  0  0  0  0  0  0  0  0  0  0  0
    4.5927   26.8634   14.8654 C   0  0  0  0  0  0  0  0  0  0  0  0
    3.3313   26.5517   14.3895 N   0  0  0  0  0  0  0  0  0  0  0  0
  1 10  1  0
  2  4  2  0
  2  5  1  0
  3  5  1  0
  4  7  1  0
  5  6  2  0
  6  8  1  0
  7  8  2  0
  7 10  1  0
  9 10  1  0
M  END
$$$$

     RDKit          3D

 12 12  0  0  0  0  0  0  0  0999 V2000
    2.5733   24.2504   12.3484 C   0  0  0  0  0  0  0  0  0  0  0  0
    2.4458   26.4854   13.4071 C   0  0  0  0  0  0  0  0  0  0  0  0
    3.2076   26.1488   11.0682 C   0  0  0  0  0  0  0  0  0  0  0  0
    3.4000   27.0404   15.6705 C   0  0  0  0  0  0  0  0  0  0  0  0
    3.4196   23.8907   10.1291 C   0  0  0  0  0  0  0  0  0  0  0  0
    3.6034   25.2658   10.0060 C   0  0  0  0  0  0  0  0  0  0  0  0
    3.6971   22.8959    9.0649 C   0  0  0  0  0  0  0  0  0  0  0  0
    4.8511   23.3636    8.1316 C   0  0  0  0  0  0  0  0  0  0  0  0
    2.9057   23.4311   11.3409 N   0  0  0  0  0  0  0  0  0  0  0  0
    2.7489   25.6125   12.2608 N   0  0  0  0  0  0  0  0  0  0  0  0
    3.3307   27.4461   10.8171 N   0  0  0  0  0  0  0  0  0  0  0  0
    3.5445   26.6959   14.2688 N   0  0  0  0  0  0  0  0  0  0  0  0
  1  9  2  0
  1 10  1  0
  2 10  1  0
  2 12  1  0
  3  6  1  0
  3 10  1  0
  3 11  2  0
  4 12  1  0
  5  6  2  0
  5  7  1  0
  5  9  1  0
  7  8  1  0
M  END
$$$$

     RDKit          3D

 11 11  0  0  0  0  0  0  0  0999 V2000
    1.9521   25.0353   15.2798 C   0  0  0  0  0  0  0  0  0  0  0  0
    2.2166   27.1734   13.9807 C   0  0  0  0  0  0  0  0  0  0  0  0
    2.3205   27.1652   15.4318 C   0  0  0  0  0  0  0  0  0  0  0  0
    2.6398   24.0335   10.2051 C   0  0  0  0  0  0  0  0  0  0  0  0
    2.4184   24.4226   11.5103 C   0  0  0  0  0  0  0  0  0  0  0  0
    2.7383   25.6927   11.9400 C   0  0  0  0  0  0  0  0  0  0  0  0
    3.1862   24.8277    9.2540 C   0  0  0  0  0  0  0  0  0  0  0  0
    3.2235   26.5959   11.0255 C   0  0  0  0  0  0  0  0  0  0  0  0
    3.5373   26.1505    9.6479 C   0  0  0  0  0  0  0  0  0  0  0  0
    2.2559   25.9673   16.0598 N   0  0  0  0  0  0  0  0  0  0  0  0
    2.5132   25.9339   13.3768 N   0  0  0  0  0  0  0  0  0  0  0  0
  1 10  1  0
  2  3  1  0
  2 11  1  0
  3 10  1  0
  4  5  1  0
  4  7  2  0
  5  6  1  0
  6  8  2  0
  6 11  1  0
  7  9  1  0
  8  9  1  0
M  END
$$$$

     RDKit          3D

 15 16  0  0  0  0  0  0  0  0999 V2000
    1.9442   26.8417   14.1800 C   0  0  0  0  0  0  0  0  0  0  0  0
    2.2648   27.0979   15.5875 C   0  0  0  0  0  0  0  0  0  0  0  0
    3.0938   24.7294   10.3451 C   0  0  0  0  0  0  0  0  0  0  0  0
    2.9903   26.1821   11.9161 C   0  0  0  0  0  0  0  0  0  0  0  0
    3.0799   26.7314   13.2850 C   0  0  0  0  0  0  0  0  0  0  0  0
    3.4527   25.9407    9.7883 C   0  0  0  0  0  0  0  0  0  0  0  0
    3.6151   27.0806   15.9172 C   0  0  0  0  0  0  0  0  0  0  0  0
    4.6037   26.9330   15.0022 C   0  0  0  0  0  0  0  0  0  0  0  0
    4.1499   23.2418    8.8463 O   0  0  0  0  0  0  0  0  0  0  0  0
    2.0547   23.2623    8.6855 N   0  0  0  0  0  0  0  0  0  0  0  0
    2.7956   24.9065   11.6335 N   0  0  0  0  0  0  0  0  0  0  0  0
    3.0859   23.5180    9.6370 N   0  0  0  0  0  0  0  0  0  0  0  0
    3.4034   26.8121   10.8583 N   0  0  0  0  0  0  0  0  0  0  0  0
    4.1906   26.2002    8.7230 N   0  0  0  0  0  0  0  0  0  0  0  0
    4.3030   26.7848   13.7948 N   0  0  0  0  0  0  0  0  0  0  0  0
  1  2  2  0
  1  5  1  0
  2  7  1  0
  3  6  1  0
  3 11  1  0
  3 12  1  0
  4  5  1  0
  4 11  2  0
  4 13  1  0
  5 15  2  0
  6 13  1  0
  6 14  2  0
  7  8  2  0
  8 15  1  0
  9 12  1  0
 10 12  1  0
M  END
$$$$

     RDKit          3D

 10 11  0  0  0  0  0  0  0  0999 V2000
    2.0343   26.1042   14.8820 C   0  0  0  0  0  0  0  0  0  0  0  0
    2.4101   24.2168   11.8152 C   0  0  0  0  0  0  0  0  0  0  0  0
    2.4386   25.0198   12.9683 C   0  0  0  0  0  0  0  0  0  0  0  0
    2.7574   24.7223   10.5553 C   0  0  0  0  0  0  0  0  0  0  0  0
    2.8558   26.3305   12.8585 C   0  0  0  0  0  0  0  0  0  0  0  0
    3.1630   26.0836   10.4785 C   0  0  0  0  0  0  0  0  0  0  0  0
    3.2350   26.8879   11.6258 C   0  0  0  0  0  0  0  0  0  0  0  0
    2.6851   23.9186    9.4410 O   0  0  0  0  0  0  0  0  0  0  0  0
    2.6993   27.0087   14.0478 O   0  0  0  0  0  0  0  0  0  0  0  0
    2.0868   24.7338   14.3032 N   0  0  0  0  0  0  0  0  0  0  0  0
  1  9  1  0
  1 10  1  0
  2  3  1  0
  2  4  2  0
  3  5  2  0
  3 10  1  0
  4  6  1  0
  4  8  1  0
  5  7  1  0
  5  9  1  0
  6  7  2  0
M  END
$$$$

     RDKit          3D

 13 13  0  0  0  0  0  0  0  0999 V2000
    3.1319   23.5519   10.8085 C   0  0  0  0  0  0  0  0  0  0  0  0
    3.0741   24.9134   11.1394 C   0  0  0  0  0  0  0  0  0  0  0  0
    3.0014   26.8471   14.3527 C   0  0  0  0  0  0  0  0  0  0  0  0
    3.1502   26.7692   15.7182 C   0  0  0  0  0  0  0  0  0  0  0  0
    3.5682   25.8697   13.5203 C   0  0  0  0  0  0  0  0  0  0  0  0
    3.4307   25.9586   12.0117 C   0  0  0  0  0  0  0  0  0  0  0  0
    3.4982   26.9997    9.8871 C   0  0  0  0  0  0  0  0  0  0  0  0
    3.6407   27.1244   11.2842 C   0  0  0  0  0  0  0  0  0  0  0  0
    3.8297   25.7002   16.2974 C   0  0  0  0  0  0  0  0  0  0  0  0
    4.3092   24.8391   14.1067 C   0  0  0  0  0  0  0  0  0  0  0  0
    4.4313   24.7389   15.4995 C   0  0  0  0  0  0  0  0  0  0  0  0
    2.9606   23.0153    9.5448 O   0  0  0  0  0  0  0  0  0  0  0  0
    3.1581   25.9018    9.6307 O   0  0  0  0  0  0  0  0  0  0  0  0
  1  2  1  0
  1 12  1  0
  2  6  1  0
  3  4  2  0
  3  5  1  0
  4  9  1  0
  5  6  1  0
  5 10  2  0
  6  8  2  3
  7  8  1  0
  7 13  1  0
  9 11  2  0
 10 11  1  0
M  END
$$$$

     RDKit          3D

 11 11  0  0  0  0  0  0  0  0999 V2000
    2.4441   24.1276   12.3736 C   0  0  0  0  0  0  0  0  0  0  0  0
    2.4607   24.8515   13.5760 C   0  0  0  0  0  0  0  0  0  0  0  0
    2.7575   23.9122    9.8787 C   0  0  0  0  0  0  0  0  0  0  0  0
    2.7634   24.7278   11.1371 C   0  0  0  0  0  0  0  0  0  0  0  0
    2.7402   26.2444   13.5733 C   0  0  0  0  0  0  0  0  0  0  0  0
    3.0428   26.1199   11.1631 C   0  0  0  0  0  0  0  0  0  0  0  0
    3.0212   26.8781   12.3442 C   0  0  0  0  0  0  0  0  0  0  0  0
    1.6603   23.8777    9.1383 O   0  0  0  0  0  0  0  0  0  0  0  0
    2.7473   27.0799   14.7372 O   0  0  0  0  0  0  0  0  0  0  0  0
    3.6790   23.1120    9.6325 O   0  0  0  0  0  0  0  0  0  0  0  0
    3.2525   26.7802    9.9533 N   0  0  0  0  0  0  0  0  0  0  0  0
  1  2  2  0
  1  4  1  0
  2  5  1  0
  3  4  1  0
  3  8  2  0
  3 10  1  0
  4  6  2  0
  5  7  2  0
  5  9  1  0
  6  7  1  0
  6 11  1  0
M  END
$$$$

     RDKit          3D

 12 12  0  0  0  0  0  0  0  0999 V2000
    2.1670   26.9591   14.7003 C   0  0  0  0  0  0  0  0  0  0  0  0
    2.4393   24.0132   11.8584 C   0  0  0  0  0  0  0  0  0  0  0  0
    2.4499   24.9692   12.8485 C   0  0  0  0  0  0  0  0  0  0  0  0
    2.8185   24.3744   10.5547 C   0  0  0  0  0  0  0  0  0  0  0  0
    2.8599   26.2852   12.5866 C   0  0  0  0  0  0  0  0  0  0  0  0
    3.0068   26.8034   15.8141 C   0  0  0  0  0  0  0  0  0  0  0  0
    3.2105   25.6930   10.2816 C   0  0  0  0  0  0  0  0  0  0  0  0
    3.2549   26.6374   11.3126 C   0  0  0  0  0  0  0  0  0  0  0  0
    1.9509   23.3986    8.5069 O   0  0  0  0  0  0  0  0  0  0  0  0
    2.8810   27.2056   13.5821 O   0  0  0  0  0  0  0  0  0  0  0  0
    3.7725   22.5591    9.4289 O   0  0  0  0  0  0  0  0  0  0  0  0
    2.8148   23.4414    9.4893 N   0  0  0  0  0  0  0  0  0  0  0  0
  1  6  1  0
  1 10  1  0
  2  3  2  0
  2  4  1  0
  3  5  1  0
  4  7  2  0
  4 12  1  0
  5  8  2  0
  5 10  1  0
  7  8  1  0
  9 12  1  0
 11 12  1  0
M  END
$$$$

     RDKit          3D

 14 15  0  0  0  0  0  0  0  0999 V2000
    2.2048   24.5360   13.9130 C   0  0  0  0  0  0  0  0  0  0  0  0
    2.4287   23.6864    9.2558 C   0  0  0  0  0  0  0  0  0  0  0  0
    2.6163   24.9848   12.6710 C   0  0  0  0  0  0  0  0  0  0  0  0
    2.5020   25.2546   15.0356 C   0  0  0  0  0  0  0  0  0  0  0  0
    2.7515   24.6255   10.3729 C   0  0  0  0  0  0  0  0  0  0  0  0
    3.3410   25.8781   10.1663 C   0  0  0  0  0  0  0  0  0  0  0  0
    3.2989   26.2502   12.5435 C   0  0  0  0  0  0  0  0  0  0  0  0
    3.2871   26.4175   14.8802 C   0  0  0  0  0  0  0  0  0  0  0  0
    3.5822   26.7220   11.2369 C   0  0  0  0  0  0  0  0  0  0  0  0
    3.7802   26.9587   16.1041 C   0  0  0  0  0  0  0  0  0  0  0  0
    1.1661   23.6611    8.8933 O   0  0  0  0  0  0  0  0  0  0  0  0
    3.3265   22.8582    8.9237 O   0  0  0  0  0  0  0  0  0  0  0  0
    2.3870   24.2057   11.5929 N   0  0  0  0  0  0  0  0  0  0  0  0
    3.6218   26.9796   13.6574 N   0  0  0  0  0  0  0  0  0  0  0  0
  1  3  2  0
  1  4  1  0
  2  5  1  0
  2 11  2  0
  2 12  1  0
  3  7  1  0
  3 13  1  0
  4  8  2  0
  5  6  1  0
  5 13  2  0
  6  9  2  0
  7  9  1  0
  7 14  2  0
  8 10  1  0
  8 14  1  0
M  END
$$$$

     RDKit          3D

 10 10  0  0  0  0  0  0  0  0999 V2000
    2.5235   23.7112    9.3310 C   0  0  0  0  0  0  0  0  0  0  0  0
    2.4937   24.0903   11.7974 C   0  0  0  0  0  0  0  0  0  0  0  0
    2.6302   24.9249   12.8838 C   0  0  0  0  0  0  0  0  0  0  0  0
    2.6655   24.5974   10.5007 C   0  0  0  0  0  0  0  0  0  0  0  0
    2.9767   25.9406   10.3235 C   0  0  0  0  0  0  0  0  0  0  0  0
    2.9272   26.2616   12.7164 C   0  0  0  0  0  0  0  0  0  0  0  0
    3.1185   26.7904   11.4393 C   0  0  0  0  0  0  0  0  0  0  0  0
    1.6428   23.8999    8.4460 O   0  0  0  0  0  0  0  0  0  0  0  0
    3.3730   22.7483    9.1821 O   0  0  0  0  0  0  0  0  0  0  0  0
    3.0660   27.0386   13.8286 F   0  0  0  0  0  0  0  0  0  0  0  0
  1  4  1  0
  1  8  2  0
  1  9  1  0
  2  3  2  0
  2  4  1  0
  3  6  1  0
  4  5  2  0
  5  7  1  0
  6  7  2  0
  6 10  1  0
M  END
$$$$

     RDKit          3D

 12 11  0  0  0  0  0  0  0  0999 V2000
    2.3076   24.4067    9.4387 C   0  0  0  0  0  0  0  0  0  0  0  0
    3.1199   26.7010   10.4048 C   0  0  0  0  0  0  0  0  0  0  0  0
    3.1893   25.6485    9.3404 C   0  0  0  0  0  0  0  0  0  0  0  0
    3.1795   25.6457   17.3401 C   0  0  0  0  0  0  0  0  0  0  0  0
    3.1821   26.9074   12.9922 C   0  0  0  0  0  0  0  0  0  0  0  0
    3.7527   26.4102   11.6963 C   0  0  0  0  0  0  0  0  0  0  0  0
    3.8641   27.1106   15.4683 C   0  0  0  0  0  0  0  0  0  0  0  0
    4.2905   26.7310   14.0823 C   0  0  1  0  0  0  0  0  0  0  0  0
    2.6652   23.4474   10.2214 O   0  0  0  0  0  0  0  0  0  0  0  0
    2.8047   26.4317   16.1333 O   0  0  0  0  0  0  0  0  0  0  0  0
    4.9243   25.5188   14.2102 O   0  0  0  0  0  0  0  0  0  0  0  0
    1.2852   24.2216    8.6566 N   0  0  0  0  0  0  0  0  0  0  0  0
  1  3  1  0
  1  9  2  0
  1 12  1  0
  2  3  1  0
  2  6  1  0
  4 10  1  0
  5  6  1  0
  5  8  1  0
  7  8  1  0
  7 10  1  0
  8 11  1  1
M  END
$$$$

     RDKit          3D

 13 14  0  0  0  0  0  0  0  0999 V2000
    2.0234   26.5828   14.3516 C   0  0  0  0  0  0  0  0  0  0  0  0
    2.2217   27.0666   15.6142 C   0  0  0  0  0  0  0  0  0  0  0  0
    2.4488   24.2453   10.3066 C   0  0  0  0  0  0  0  0  0  0  0  0
    2.6619   24.5291   11.8841 C   0  0  0  0  0  0  0  0  0  0  0  0
    2.8354   25.3173    9.3803 C   0  0  0  0  0  0  0  0  0  0  0  0
    2.9615   25.8395   12.1812 C   0  0  1  0  0  0  0  0  0  0  0  0
    3.1174   26.2935   13.5552 C   0  0  0  0  0  0  0  0  0  0  0  0
    3.1864   26.5062    9.8913 C   0  0  0  0  0  0  0  0  0  0  0  0
    3.2701   26.7412   11.1941 C   0  0  0  0  0  0  0  0  0  0  0  0
    3.4951   27.2045   16.1108 C   0  0  0  0  0  0  0  0  0  0  0  0
    4.3918   26.5100   14.0068 C   0  0  0  0  0  0  0  0  0  0  0  0
    4.5677   26.9421   15.2834 C   0  0  0  0  0  0  0  0  0  0  0  0
    1.9664   23.3178    8.7505 N   0  0  0  0  0  0  0  0  0  0  0  0
  1  2  2  0
  1  7  1  0
  2 10  1  0
  3  4  1  0
  3  5  2  0
  3 13  1  0
  4  6  1  0
  5  8  1  0
  6  7  1  1
  6  9  1  0
  7 11  1  0
  8  9  2  0
 10 12  1  0
 11 12  2  0
M  END
$$$$

     RDKit          3D

 10 10  0  0  0  0  0  0  0  0999 V2000
    2.1716   24.0540   12.0788 C   0  0  0  0  0  0  0  0  0  0  0  0
    2.4405   24.5605   10.8089 C   0  0  0  0  0  0  0  0  0  0  0  0
    2.5026   24.7584   13.2234 C   0  0  0  0  0  0  0  0  0  0  0  0
    2.4626   26.8329   15.4671 C   0  0  0  0  0  0  0  0  0  0  0  0
    3.0682   25.7881   10.6914 C   0  0  0  0  0  0  0  0  0  0  0  0
    3.1272   25.9991   13.1047 C   0  0  0  0  0  0  0  0  0  0  0  0
    3.3738   26.5191   11.8260 C   0  0  0  0  0  0  0  0  0  0  0  0
    3.4811   26.8688   14.3221 C   0  0  0  0  0  0  0  0  0  0  0  0
    2.1005   23.9001    9.7351 O   0  0  0  0  0  0  0  0  0  0  0  0
    3.1140   27.1353   16.8601 N   0  0  0  0  0  0  0  0  0  0  0  0
  1  2  2  0
  1  3  1  0
  2  5  1  0
  2  9  1  0
  3  6  2  0
  4  8  1  0
  4 10  1  0
  5  7  2  0
  6  7  1  0
  6  8  1  0
M  END
$$$$

     RDKit          3D

  9  9  0  0  0  0  0  0  0  0999 V2000
    2.5796   25.9896   13.0802 C   0  0  0  0  0  0  0  0  0  0  0  0
    2.7995   24.7706   12.4859 C   0  0  0  0  0  0  0  0  0  0  0  0
    2.7908   27.1594   12.3593 C   0  0  0  0  0  0  0  0  0  0  0  0
    3.1934   24.6927   11.1400 C   0  0  0  0  0  0  0  0  0  0  0  0
    3.2395   27.1112   11.0363 C   0  0  0  0  0  0  0  0  0  0  0  0
    3.4350   23.4257   10.4241 C   0  0  0  0  0  0  0  0  0  0  0  0
    3.4308   25.8715   10.4588 C   0  0  0  0  0  0  0  0  0  0  0  0
    2.9095   23.2008    9.3382 O   0  0  0  0  0  0  0  0  0  0  0  0
    4.1654   22.5825   10.9467 O   0  0  0  0  0  0  0  0  0  0  0  0
  1  2  2  0
  1  3  1  0
  2  4  1  0
  3  5  1  0
  4  6  1  0
  4  7  1  0
  5  7  2  0
  6  8  2  0
  6  9  1  0
M  END
$$$$

     RDKit          3D

 12 12  0  0  0  0  0  0  0  0999 V2000
    2.4289   24.0675   12.2023 C   0  0  0  0  0  0  0  0  0  0  0  0
    2.4455   24.8627   13.3357 C   0  0  0  0  0  0  0  0  0  0  0  0
    2.6631   23.7511    9.6776 C   0  0  0  0  0  0  0  0  0  0  0  0
    2.7119   24.6210   10.9313 C   0  0  0  0  0  0  0  0  0  0  0  0
    2.7727   26.2224   13.2805 C   0  0  0  0  0  0  0  0  0  0  0  0
    3.1004   26.0133   10.8706 C   0  0  0  0  0  0  0  0  0  0  0  0
    3.1307   26.7978   12.0843 C   0  0  0  0  0  0  0  0  0  0  0  0
    3.1410   27.2830   16.7690 C   0  0  0  0  0  0  0  0  0  0  0  0
    3.6557   26.7942   15.4476 C   0  0  0  0  0  0  0  0  0  0  0  0
    1.5754   23.6848    9.0066 O   0  0  0  0  0  0  0  0  0  0  0  0
    2.6932   27.0381   14.4280 O   0  0  0  0  0  0  0  0  0  0  0  0
    3.6815   22.9567    9.4143 O   0  0  0  0  0  0  0  0  0  0  0  0
  1  2  2  0
  1  4  1  0
  2  5  1  0
  3  4  1  0
  3 10  2  0
  3 12  1  0
  4  6  2  0
  5  7  2  0
  5 11  1  0
  6  7  1  0
  8  9  1  0
  9 11  1  0
M  END
$$$$

     RDKit          3D

 12 12  0  0  0  0  0  0  0  0999 V2000
    2.4086   24.1688   11.5230 C   0  0  0  0  0  0  0  0  0  0  0  0
    2.2633   26.9721   14.8755 C   0  0  0  0  0  0  0  0  0  0  0  0
    2.4371   23.9363    9.1174 C   0  0  0  0  0  0  0  0  0  0  0  0
    2.7071   24.7734   10.2832 C   0  0  0  0  0  0  0  0  0  0  0  0
    2.6741   24.8545   12.6871 C   0  0  0  0  0  0  0  0  0  0  0  0
    3.1955   26.1072   10.2515 C   0  0  0  0  0  0  0  0  0  0  0  0
    3.2039   26.1517   12.6613 C   0  0  0  0  0  0  0  0  0  0  0  0
    3.4546   26.7783   11.4503 C   0  0  0  0  0  0  0  0  0  0  0  0
    3.4691   26.8828   13.9666 C   0  0  2  0  0  0  0  0  0  0  0  0
    1.2378   23.7461    8.8234 O   0  0  0  0  0  0  0  0  0  0  0  0
    3.4354   23.2016    8.6370 O   0  0  0  0  0  0  0  0  0  0  0  0
    4.6422   26.3408   14.6763 N   0  0  0  0  0  0  0  0  0  0  0  0
  1  4  2  0
  1  5  1  0
  9  2  1  1
  3  4  1  0
  3 10  2  0
  3 11  1  0
  4  6  1  0
  5  7  2  0
  6  8  2  0
  7  8  1  0
  7  9  1  0
  9 12  1  0
M  END
$$$$

     RDKit          3D

 14 14  0  0  0  0  0  0  0  0999 V2000
    2.6163   24.9190   12.5153 C   0  0  0  0  0  0  0  0  0  0  0  0
    2.8235   24.1011   11.5043 C   0  0  0  0  0  0  0  0  0  0  0  0
    2.8812   26.2936   12.3662 C   0  0  1  0  0  0  0  0  0  0  0  0
    3.1615   24.4995   10.2224 C   0  0  0  0  0  0  0  0  0  0  0  0
    2.9084   27.1113   13.5627 C   0  0  0  0  0  0  0  0  0  0  0  0
    3.1427   27.0452   16.2216 C   0  0  0  0  0  0  0  0  0  0  0  0
    3.3522   25.8553    9.9860 C   0  0  0  0  0  0  0  0  0  0  0  0
    3.1976   26.7568   11.0414 C   0  0  0  0  0  0  0  0  0  0  0  0
    3.2296   26.8097   14.8125 C   0  0  0  0  0  0  0  0  0  0  0  0
    4.2509   23.6921    8.3584 C   0  0  0  0  0  0  0  0  0  0  0  0
    2.1087   24.2302   13.5749 O   0  0  0  0  0  0  0  0  0  0  0  0
    2.8645   22.8405   11.7838 O   0  0  0  0  0  0  0  0  0  0  0  0
    3.2985   23.5118    9.2952 O   0  0  0  0  0  0  0  0  0  0  0  0
    3.2098   26.1250   17.2344 N   0  0  0  0  0  0  0  0  0  0  0  0
  1  2  1  0
  1  3  1  0
  1 11  1  0
  2  4  2  0
  2 12  1  0
  3  5  1  1
  3  8  1  0
  4  7  1  0
  4 13  1  0
  5  9  1  0
  6  9  1  0
  6 14  1  0
  7  8  2  0
 10 13  1  0
M  END
$$$$

     RDKit          3D

 13 14  0  0  0  0  0  0  0  0999 V2000
    2.3530   27.1209   14.8026 C   0  0  0  0  0  0  0  0  0  0  0  0
    2.5050   26.4990   13.5968 C   0  0  0  0  0  0  0  0  0  0  0  0
    2.7079   26.4901   15.9752 C   0  0  0  0  0  0  0  0  0  0  0  0
    3.0779   25.2579   13.4957 C   0  0  0  0  0  0  0  0  0  0  0  0
    3.1611   25.6032   10.9643 C   0  0  0  0  0  0  0  0  0  0  0  0
    3.3937   23.7028    9.5871 C   0  0  0  0  0  0  0  0  0  0  0  0
    3.3960   24.5622   14.7005 C   0  0  0  0  0  0  0  0  0  0  0  0
    3.2327   24.7635   12.1139 C   0  0  0  0  0  0  0  0  0  0  0  0
    3.2381   25.0756    9.6728 C   0  0  0  0  0  0  0  0  0  0  0  0
    3.4364   23.4231   11.8882 C   0  0  0  0  0  0  0  0  0  0  0  0
    3.4404   24.7439   17.2955 C   0  0  0  0  0  0  0  0  0  0  0  0
    3.2320   25.2442   15.9612 N   0  0  0  0  0  0  0  0  0  0  0  0
    3.5258   22.9250   10.6551 N   0  0  0  0  0  0  0  0  0  0  0  0
  1  2  1  0
  1  3  2  0
  2  4  2  0
  3 12  1  0
  4  7  1  0
  4  8  1  0
  5  8  2  0
  5  9  1  0
  6  9  2  0
  6 13  1  0
  7 12  1  0
  8 10  1  0
 10 13  2  0
 11 12  1  0
M  END
$$$$

     RDKit          3D

 14 15  0  0  0  0  0  0  0  0999 V2000
    1.6926   25.1755   14.7414 C   0  0  0  0  0  0  0  0  0  0  0  0
    2.1969   26.5287   14.7647 C   0  0  1  0  0  0  0  0  0  0  0  0
    2.6469   24.0361   11.4430 C   0  0  0  0  0  0  0  0  0  0  0  0
    2.6064   24.8595   12.5745 C   0  0  0  0  0  0  0  0  0  0  0  0
    2.8579   26.2241   12.4610 C   0  0  0  0  0  0  0  0  0  0  0  0
    2.6983   27.1088   15.9629 C   0  0  0  0  0  0  0  0  0  0  0  0
    2.9230   23.6640    9.0221 C   0  0  0  0  0  0  0  0  0  0  0  0
    2.9113   24.5776   10.1870 C   0  0  0  0  0  0  0  0  0  0  0  0
    3.1183   25.9881   10.0625 C   0  0  0  0  0  0  0  0  0  0  0  0
    3.1248   26.8153   11.2114 C   0  0  0  0  0  0  0  0  0  0  0  0
    1.9750   23.7308    8.1766 O   0  0  0  0  0  0  0  0  0  0  0  0
    2.3968   24.3367   13.7693 O   0  0  0  0  0  0  0  0  0  0  0  0
    2.8533   27.0341   13.6007 O   0  0  0  0  0  0  0  0  0  0  0  0
    3.7742   22.6714    8.9884 O   0  0  0  0  0  0  0  0  0  0  0  0
  1  2  1  0
  1 12  1  0
  2  6  1  1
  2 13  1  0
  3  4  2  0
  3  8  1  0
  4  5  1  0
  4 12  1  0
  5 10  2  0
  5 13  1  0
  7  8  1  0
  7 11  2  0
  7 14  1  0
  8  9  2  0
  9 10  1  0
M  END
$$$$

     RDKit          3D

 15 16  0  0  0  0  0  0  0  0999 V2000
    2.2201   26.8997   13.4792 C   0  0  0  0  0  0  0  0  0  0  0  0
    2.2607   27.2605   14.8263 C   0  0  0  0  0  0  0  0  0  0  0  0
    2.8050   24.0341    9.8428 C   0  0  2  0  0  0  0  0  0  0  0  0
    2.7093   24.5959   11.2262 C   0  0  0  0  0  0  0  0  0  0  0  0
    3.3765   26.3966   12.8676 C   0  0  0  0  0  0  0  0  0  0  0  0
    3.5279   24.9395    8.8716 C   0  0  0  0  0  0  0  0  0  0  0  0
    3.4775   26.4187    9.1378 C   0  0  0  0  0  0  0  0  0  0  0  0
    3.5812   26.8849   10.5252 C   0  0  0  0  0  0  0  0  0  0  0  0
    3.4454   27.1611   15.5902 C   0  0  0  0  0  0  0  0  0  0  0  0
    4.5639   26.4030   13.5589 C   0  0  0  0  0  0  0  0  0  0  0  0
    4.6321   26.8109   14.9186 C   0  0  0  0  0  0  0  0  0  0  0  0
    1.5803   23.5001    9.2439 O   0  0  0  0  0  0  0  0  0  0  0  0
    2.2248   23.8996   12.1590 O   0  0  0  0  0  0  0  0  0  0  0  0
    3.2583   25.9130   11.5251 N   0  0  0  0  0  0  0  0  0  0  0  0
    3.3398   27.4281   16.9507 N   0  0  0  0  0  0  0  0  0  0  0  0
  1  2  2  0
  1  5  1  0
  2  9  1  0
  3  4  1  0
  3  6  1  0
  3 12  1  6
  4 13  2  0
  4 14  1  0
  5 10  2  0
  5 14  1  0
  6  7  1  0
  7  8  1  0
  8 14  1  0
  9 11  2  0
  9 15  1  0
 10 11  1  0
M  END
$$$$

     RDKit          3D

 13 14  0  0  0  0  0  0  0  0999 V2000
    2.3764   25.3025   13.4060 C   0  0  0  0  0  0  0  0  0  0  0  0
    2.2149   25.9292   14.6390 C   0  0  0  0  0  0  0  0  0  0  0  0
    3.3892   25.6213   12.5265 C   0  0  0  0  0  0  0  0  0  0  0  0
    3.1782   26.8607   15.0879 C   0  0  0  0  0  0  0  0  0  0  0  0
    3.5999   24.8681   11.2597 C   0  0  0  0  0  0  0  0  0  0  0  0
    3.4865   25.5850   10.0671 C   0  0  0  0  0  0  0  0  0  0  0  0
    3.8373   23.5004   11.1792 C   0  0  0  0  0  0  0  0  0  0  0  0
    3.6685   24.9203    8.8623 C   0  0  0  0  0  0  0  0  0  0  0  0
    3.9237   23.5338    8.8801 C   0  0  0  0  0  0  0  0  0  0  0  0
    4.1556   27.2425   14.1652 C   0  0  0  0  0  0  0  0  0  0  0  0
    4.2731   26.6483   12.9093 C   0  0  0  0  0  0  0  0  0  0  0  0
    3.1298   27.3531   16.4135 N   0  0  0  0  0  0  0  0  0  0  0  0
    4.0092   22.8579   10.0407 N   0  0  0  0  0  0  0  0  0  0  0  0
  1  2  2  0
  1  3  1  0
  2  4  1  0
  3  5  1  0
  3 11  2  0
  4 10  2  0
  4 12  1  0
  5  6  2  0
  5  7  1  0
  6  8  1  0
  7 13  2  0
  8  9  2  0
  9 13  1  0
 10 11  1  0
M  END
$$$$

     RDKit          3D

 12 13  0  0  0  0  0  0  0  0999 V2000
    2.4052   26.1185   14.8735 C   0  0  0  0  0  0  0  0  0  0  0  0
    2.4661   24.6024   12.5537 C   0  0  0  0  0  0  0  0  0  0  0  0
    2.6062   26.7825   13.6494 C   0  0  0  0  0  0  0  0  0  0  0  0
    2.5167   26.8986   16.1343 C   0  0  0  0  0  0  0  0  0  0  0  0
    2.7168   25.9878   12.4631 C   0  0  0  0  0  0  0  0  0  0  0  0
    3.1261   24.2741   10.3035 C   0  0  0  0  0  0  0  0  0  0  0  0
    3.1486   26.5250   11.2408 C   0  0  0  0  0  0  0  0  0  0  0  0
    3.4107   23.3905    9.1509 C   0  0  0  0  0  0  0  0  0  0  0  0
    3.3253   25.6502   10.1419 C   0  0  0  0  0  0  0  0  0  0  0  0
    2.0770   23.9973   13.7200 N   0  0  0  0  0  0  0  0  0  0  0  0
    2.0594   24.7507   14.9205 N   0  0  0  0  0  0  0  0  0  0  0  0
    2.6284   23.7728   11.4415 N   0  0  0  0  0  0  0  0  0  0  0  0
  1  3  2  0
  1  4  1  0
  1 11  1  0
  2  5  2  0
  2 10  1  0
  2 12  1  0
  3  5  1  0
  5  7  1  0
  6  8  1  0
  6  9  1  0
  6 12  2  0
  7  9  2  0
 10 11  2  0
M  END
$$$$

     RDKit          3D

 13 13  0  0  0  0  0  0  0  0999 V2000
    2.8793   24.9238   11.4635 C   0  0  0  0  0  0  0  0  0  0  0  0
    3.1366   24.4661   10.1441 C   0  0  0  0  0  0  0  0  0  0  0  0
    3.1224   26.3135   11.7852 C   0  0  0  0  0  0  0  0  0  0  0  0
    2.9712   26.8419   13.1515 C   0  0  0  0  0  0  0  0  0  0  0  0
    3.1504   27.2507   16.0454 C   0  0  0  0  0  0  0  0  0  0  0  0
    3.5357   25.4235    9.1585 C   0  0  0  0  0  0  0  0  0  0  0  0
    3.5015   27.2496   10.8053 C   0  0  0  0  0  0  0  0  0  0  0  0
    3.6911   26.7881    9.4968 C   0  0  0  0  0  0  0  0  0  0  0  0
    4.3528   26.9426   13.8294 C   0  0  0  0  0  0  0  0  0  0  0  0
    4.3942   26.9419   15.2811 C   0  0  0  0  0  0  0  0  0  0  0  0
    2.3236   24.0885   12.3531 O   0  0  0  0  0  0  0  0  0  0  0  0
    2.9393   23.1752    9.7614 O   0  0  0  0  0  0  0  0  0  0  0  0
    3.2179   27.6452   17.3254 O   0  0  0  0  0  0  0  0  0  0  0  0
  1  2  2  0
  1  3  1  0
  1 11  1  0
  2  6  1  0
  2 12  1  0
  3  4  1  0
  3  7  1  0
  4  9  1  0
  5 10  2  3
  5 13  1  0
  6  8  1  0
  7  8  2  0
  9 10  1  0
M  END
$$$$

     RDKit          3D

  8  8  0  0  0  0  0  0  0  0999 V2000
    2.4712   24.8154   13.3458 C   0  0  0  0  0  0  0  0  0  0  0  0
    2.6217   26.2173   13.4964 C   0  0  0  0  0  0  0  0  0  0  0  0
    2.7267   24.2195   12.1004 C   0  0  0  0  0  0  0  0  0  0  0  0
    3.0842   25.0061   10.9747 C   0  0  0  0  0  0  0  0  0  0  0  0
    3.0102   26.9729   12.3922 C   0  0  0  0  0  0  0  0  0  0  0  0
    3.2305   26.3779   11.1538 C   0  0  0  0  0  0  0  0  0  0  0  0
    2.3467   26.8852   14.6946 O   0  0  0  0  0  0  0  0  0  0  0  0
    3.2635   24.5153    9.6988 O   0  0  0  0  0  0  0  0  0  0  0  0
  1  2  2  0
  1  3  1  0
  2  5  1  0
  2  7  1  0
  3  4  2  0
  4  6  1  0
  4  8  1  0
  5  6  2  0
M  END
$$$$

     RDKit          3D

 13 14  0  0  0  0  0  0  0  0999 V2000
    2.6108   25.1696   11.9473 C   0  0  0  0  0  0  0  0  0  0  0  0
    2.5315   26.6053   13.9553 C   0  0  0  0  0  0  0  0  0  0  0  0
    2.7683   23.7188    9.8724 C   0  0  0  0  0  0  0  0  0  0  0  0
    2.7225   26.7574   15.3349 C   0  0  0  0  0  0  0  0  0  0  0  0
    3.0285   24.0085   11.3229 C   0  0  0  0  0  0  0  0  0  0  0  0
    2.9235   25.3900   13.3002 C   0  0  0  0  0  0  0  0  0  0  0  0
    3.3391   25.6946   16.0489 C   0  0  0  0  0  0  0  0  0  0  0  0
    3.6458   24.3862   14.0249 C   0  0  0  0  0  0  0  0  0  0  0  0
    3.8085   23.0797   11.9950 C   0  0  0  0  0  0  0  0  0  0  0  0
    3.8188   24.5408   15.4167 C   0  0  0  0  0  0  0  0  0  0  0  0
    4.1484   23.2577   13.3165 C   0  0  0  0  0  0  0  0  0  0  0  0
    1.6977   23.9768    9.2855 O   0  0  0  0  0  0  0  0  0  0  0  0
    3.5175   22.7212    9.3872 O   0  0  0  0  0  0  0  0  0  0  0  0
  1  5  2  0
  1  6  1  0
  2  4  1  0
  2  6  2  0
  3  5  1  0
  3 12  2  0
  3 13  1  0
  4  7  2  0
  5  9  1  0
  6  8  1  0
  7 10  1  0
  8 10  2  0
  8 11  1  0
  9 11  2  0
M  END
$$$$

     RDKit          3D

 12 13  0  0  0  0  0  0  0  0999 V2000
    2.1498   25.4638   15.0720 C   0  0  0  0  0  0  0  0  0  0  0  0
    2.3511   24.5033   14.1379 C   0  0  0  0  0  0  0  0  0  0  0  0
    2.3677   26.7802   14.7070 C   0  0  0  0  0  0  0  0  0  0  0  0
    2.8259   24.7664   12.8847 C   0  0  0  0  0  0  0  0  0  0  0  0
    2.8305   27.1060   13.4608 C   0  0  0  0  0  0  0  0  0  0  0  0
    3.0439   26.1124   12.5077 C   0  0  0  0  0  0  0  0  0  0  0  0
    3.4809   23.8699   10.7649 C   0  0  0  0  0  0  0  0  0  0  0  0
    3.4768   26.3451   11.1382 C   0  0  0  0  0  0  0  0  0  0  0  0
    3.5015   22.9207    9.9023 O   0  0  0  0  0  0  0  0  0  0  0  0
    3.9357   27.4438   10.8392 O   0  0  0  0  0  0  0  0  0  0  0  0
    2.9801   23.6969   11.9986 N   0  0  0  0  0  0  0  0  0  0  0  0
    3.7510   25.2209   10.3950 N   0  0  0  0  0  0  0  0  0  0  0  0
  1  2  2  0
  1  3  1  0
  2  4  1  0
  3  5  2  0
  4  6  1  0
  4 11  2  0
  5  6  1  0
  6  8  1  0
  7  9  2  0
  7 11  1  0
  7 12  1  0
  8 10  2  0
  8 12  1  0
M  END
$$$$

     RDKit          3D

 17 19  0  0  0  0  0  0  0  0999 V2000
    2.5533   26.7061   13.7999 C   0  0  0  0  0  0  0  0  0  0  0  0
    2.8618   24.9145   10.0085 C   0  0  0  0  0  0  0  0  0  0  0  0
    2.7794   25.4990   11.2511 C   0  0  0  0  0  0  0  0  0  0  0  0
    2.8489   26.5137   16.1953 C   0  0  0  0  0  0  0  0  0  0  0  0
    2.6711   27.3478   15.0747 C   0  0  0  0  0  0  0  0  0  0  0  0
    3.2763   24.8129   12.3631 C   0  0  0  0  0  0  0  0  0  0  0  0
    3.3707   25.2430   16.0713 C   0  0  0  0  0  0  0  0  0  0  0  0
    3.1784   25.4323   13.6410 C   0  0  0  0  0  0  0  0  0  0  0  0
    3.5752   23.1252    8.4426 C   0  0  0  0  0  0  0  0  0  0  0  0
    3.4281   23.6663    9.8566 C   0  0  0  0  0  0  0  0  0  0  0  0
    3.5418   24.6582   14.7905 C   0  0  0  0  0  0  0  0  0  0  0  0
    3.4247   25.0674   18.5063 C   0  0  0  0  0  0  0  0  0  0  0  0
    3.8403   23.5475   12.1797 C   0  0  0  0  0  0  0  0  0  0  0  0
    3.9284   22.9848   10.9261 C   0  0  0  0  0  0  0  0  0  0  0  0
    4.3695   22.7835   13.3267 C   0  0  0  0  0  0  0  0  0  0  0  0
    4.2030   23.3382   14.6573 C   0  0  0  0  0  0  0  0  0  0  0  0
    3.5060   24.4495   17.2076 O   0  0  0  0  0  0  0  0  0  0  0  0
  1  5  1  0
  1  8  1  0
  2  3  2  0
  2 10  1  0
  3  6  1  0
  4  5  1  0
  4  7  2  0
  6  8  2  0
  6 13  1  0
  7 11  1  0
  7 17  1  0
  8 11  1  0
  9 10  1  0
 10 14  2  0
 11 16  2  0
 12 17  1  0
 13 14  1  0
 13 15  2  0
 15 16  1  0
M  END
$$$$

     RDKit          3D

 11 11  0  0  0  0  0  0  0  0999 V2000
    2.2362   23.4758    8.8036 C   0  0  0  0  0  0  0  0  0  0  0  0
    2.2307   26.4237   15.4179 C   0  0  0  0  0  0  0  0  0  0  0  0
    2.4895   24.9573   13.0251 C   0  0  0  0  0  0  0  0  0  0  0  0
    2.6576   26.3476   12.8941 C   0  0  0  0  0  0  0  0  0  0  0  0
    2.4177   27.1440   14.1250 C   0  0  0  0  0  0  0  0  0  0  0  0
    2.6719   24.1573   11.9173 C   0  0  0  0  0  0  0  0  0  0  0  0
    3.0878   24.6865   10.7112 C   0  0  0  0  0  0  0  0  0  0  0  0
    3.0679   26.8893   11.6986 C   0  0  0  0  0  0  0  0  0  0  0  0
    3.1232   27.0618   16.4632 C   0  0  0  0  0  0  0  0  0  0  0  0
    3.2856   23.7605    9.5698 C   0  0  0  0  0  0  0  0  0  0  0  0
    3.2639   26.0672   10.6026 C   0  0  0  0  0  0  0  0  0  0  0  0
  1 10  2  0
  2  5  1  0
  2  9  1  0
  3  4  2  0
  3  6  1  0
  4  5  1  0
  4  8  1  0
  6  7  2  0
  7 10  1  0
  7 11  1  0
  8 11  2  0
M  END
$$$$

     RDKit          3D

 13 13  0  0  0  0  0  0  0  0999 V2000
    1.5256   25.8923   15.0504 C   0  0  0  0  0  0  0  0  0  0  0  0
    2.8347   24.5483   12.5375 C   0  0  0  0  0  0  0  0  0  0  0  0
    2.8061   26.9371   13.2507 C   0  0  0  0  0  0  0  0  0  0  0  0
    3.0901   23.9027   10.3069 C   0  0  0  0  0  0  0  0  0  0  0  0
    2.9182   25.9182   12.1689 C   0  0  0  0  0  0  0  0  0  0  0  0
    3.3039   25.2016    9.9327 C   0  0  0  0  0  0  0  0  0  0  0  0
    3.1958   26.2117   10.8712 C   0  0  0  0  0  0  0  0  0  0  0  0
    3.6942   26.7524   15.4701 C   0  0  0  0  0  0  0  0  0  0  0  0
    5.0446   26.8614   13.3621 C   0  0  0  0  0  0  0  0  0  0  0  0
    5.0602   26.8114   14.8522 C   0  0  0  0  0  0  0  0  0  0  0  0
    3.0724   22.9512    9.3160 O   0  0  0  0  0  0  0  0  0  0  0  0
    2.7507   26.3496   14.5558 N   0  0  0  0  0  0  0  0  0  0  0  0
    2.9144   23.5363   11.6213 N   0  0  0  0  0  0  0  0  0  0  0  0
  1 12  1  0
  2  5  1  0
  2 13  2  0
  3  5  1  0
  3 12  1  0
  4  6  1  0
  4 11  2  0
  4 13  1  0
  5  7  2  0
  6  7  1  0
  8 10  1  0
  8 12  1  0
  9 10  1  0
M  END
$$$$

     RDKit          3D

 15 16  0  0  0  0  0  0  0  0999 V2000
    2.0328   26.6225   13.9630 C   0  0  0  0  0  0  0  0  0  0  0  0
    2.0395   26.8449   15.3480 C   0  0  0  0  0  0  0  0  0  0  0  0
    2.6642   24.6766   10.1219 C   0  0  0  0  0  0  0  0  0  0  0  0
    2.6974   24.9849   11.4752 C   0  0  0  0  0  0  0  0  0  0  0  0
    3.1334   25.6379    9.2150 C   0  0  0  0  0  0  0  0  0  0  0  0
    3.2372   26.2344   11.9014 C   0  0  0  0  0  0  0  0  0  0  0  0
    3.2540   26.5706   13.2746 C   0  0  0  0  0  0  0  0  0  0  0  0
    3.2052   27.1604   16.0048 C   0  0  0  0  0  0  0  0  0  0  0  0
    3.6376   26.8408    9.6162 C   0  0  0  0  0  0  0  0  0  0  0  0
    3.6972   27.1459   10.9502 C   0  0  0  0  0  0  0  0  0  0  0  0
    4.4369   26.9535   13.9059 C   0  0  0  0  0  0  0  0  0  0  0  0
    4.4340   27.1580   15.3031 C   0  0  0  0  0  0  0  0  0  0  0  0
    2.1941   23.4988    9.8207 O   0  0  0  0  0  0  0  0  0  0  0  0
    2.2245   24.0218   12.3260 O   0  0  0  0  0  0  0  0  0  0  0  0
    3.1606   27.5481   17.3681 N   0  0  0  0  0  0  0  0  0  0  0  0
  1  2  1  0
  1  7  1  0
  2  8  2  0
  3  4  2  0
  3  5  1  0
  3 13  1  0
  4  6  1  0
  4 14  1  0
  5  9  2  0
  6  7  1  0
  6 10  2  0
  7 11  2  0
  8 12  1  0
  8 15  1  0
  9 10  1  0
 11 12  1  0
M  END
$$$$

     RDKit          3D

 13 14  0  0  0  0  0  0  0  0999 V2000
    2.2799   25.3902   14.2489 C   0  0  0  0  0  0  0  0  0  0  0  0
    2.2296   25.8448   15.5955 C   0  0  0  0  0  0  0  0  0  0  0  0
    2.5494   24.6173    9.9648 C   0  0  0  0  0  0  0  0  0  0  0  0
    3.0715   25.9230    9.6443 C   0  0  0  0  0  0  0  0  0  0  0  0
    3.1790   25.5487   11.8487 C   0  0  2  0  0  0  0  0  0  0  0  0
    3.2145   25.8883   13.3193 C   0  0  0  0  0  0  0  0  0  0  0  0
    3.4009   26.5003   10.8729 C   0  0  0  0  0  0  0  0  0  0  0  0
    3.1640   26.8493   15.9978 C   0  0  0  0  0  0  0  0  0  0  0  0
    4.1342   27.2414   15.0853 C   0  0  0  0  0  0  0  0  0  0  0  0
    4.1709   26.8076   13.7954 C   0  0  0  0  0  0  0  0  0  0  0  0
    1.6713   23.8987    9.2519 O   0  0  0  0  0  0  0  0  0  0  0  0
    2.6167   24.4902   11.3129 N   0  0  0  0  0  0  0  0  0  0  0  0
    3.1547   27.4300   17.2624 N   0  0  0  0  0  0  0  0  0  0  0  0
  1  2  2  0
  1  6  1  0
  2  8  1  0
  3  4  1  0
  3 11  2  0
  3 12  1  0
  4  7  1  0
  5  6  1  1
  5  7  1  0
  5 12  1  0
  6 10  2  0
  8  9  2  0
  8 13  1  0
  9 10  1  0
M  END
$$$$

     RDKit          3D

 13 13  0  0  0  0  0  0  0  0999 V2000
    2.2478   26.0397   14.8879 C   0  0  0  0  0  0  0  0  0  0  0  0
    2.5160   24.8670   12.4838 C   0  0  0  0  0  0  0  0  0  0  0  0
    2.7895   24.8955   10.1599 C   0  0  0  0  0  0  0  0  0  0  0  0
    2.9625   26.2035   12.5789 C   0  0  2  0  0  0  0  0  0  0  0  0
    2.9670   26.9302   13.8847 C   0  0  0  0  0  0  0  0  0  0  0  0
    3.2400   26.2001   10.1994 C   0  0  0  0  0  0  0  0  0  0  0  0
    3.3392   26.8586   11.4180 C   0  0  0  0  0  0  0  0  0  0  0  0
    3.7387   25.4933   15.8667 C   0  0  0  0  0  0  0  0  0  0  0  0
    2.6640   25.9212   16.0576 O   0  0  0  0  0  0  0  0  0  0  0  0
    3.3718   25.3346   17.0032 O   0  0  0  0  0  0  0  0  0  0  0  0
    4.8476   25.5960   15.3972 O   0  0  0  0  0  0  0  0  0  0  0  0
    2.1648   24.2752   13.7621 N   0  0  0  0  0  0  0  0  0  0  0  0
    2.4275   24.2219   11.2600 N   0  0  0  0  0  0  0  0  0  0  0  0
  1  5  1  0
  1  9  1  0
  2  4  1  0
  2 12  2  0
  2 13  1  0
  3  6  1  0
  3 13  2  0
  4  5  1  6
  4  7  1  0
  6  7  2  0
  8  9  1  0
  8 10  2  0
  8 11  1  0
M  END
$$$$

     RDKit          3D

 14 15  0  0  0  0  0  0  0  0999 V2000
    2.4899   24.2478   11.4857 C   0  0  0  0  0  0  0  0  0  0  0  0
    2.5612   24.8816   12.7268 C   0  0  0  0  0  0  0  0  0  0  0  0
    2.6069   24.6657   15.0412 C   0  0  0  0  0  0  0  0  0  0  0  0
    2.7483   24.1690    9.1231 C   0  0  0  0  0  0  0  0  0  0  0  0
    2.8366   24.9564   10.3280 C   0  0  0  0  0  0  0  0  0  0  0  0
    2.9565   26.2313   12.8058 C   0  0  0  0  0  0  0  0  0  0  0  0
    3.0102   26.9026   14.1787 C   0  0  0  0  0  0  0  0  0  0  0  0
    3.2530   26.2986   10.4040 C   0  0  0  0  0  0  0  0  0  0  0  0
    3.1665   26.3605   16.5494 C   0  0  0  0  0  0  0  0  0  0  0  0
    3.2903   26.9187   11.6344 C   0  0  0  0  0  0  0  0  0  0  0  0
    1.6593   23.5793    8.8626 O   0  0  0  0  0  0  0  0  0  0  0  0
    3.8876   23.8470    8.6302 O   0  0  0  0  0  0  0  0  0  0  0  0
    2.3613   24.1314   13.8697 N   0  0  0  0  0  0  0  0  0  0  0  0
    3.1730   25.9524   15.2467 N   0  0  0  0  0  0  0  0  0  0  0  0
  1  2  2  0
  1  5  1  0
  2  6  1  0
  2 13  1  0
  3 13  2  0
  3 14  1  0
  4  5  1  0
  4 11  2  0
  4 12  1  0
  5  8  1  0
  6  7  1  0
  6 10  1  0
  7 14  1  0
  8 10  2  0
  9 14  1  0
M  END
$$$$

     RDKit          3D

 14 14  0  0  0  0  0  0  0  0999 V2000
    2.8710   26.9705   15.0430 C   0  0  0  0  0  0  0  0  0  0  0  0
    2.9215   23.1268    8.9256 C   0  0  0  0  0  0  0  0  0  0  0  0
    2.9139   25.1442   10.3630 C   0  0  0  0  0  0  0  0  0  0  0  0
    3.3978   23.8593   10.1203 C   0  0  0  0  0  0  0  0  0  0  0  0
    3.3538   25.8270   11.4705 C   0  0  0  0  0  0  0  0  0  0  0  0
    3.6944   25.8373   14.7243 C   0  0  0  0  0  0  0  0  0  0  0  0
    4.2641   23.2017   10.9502 C   0  0  0  0  0  0  0  0  0  0  0  0
    4.1651   25.1735   12.3750 C   0  0  0  0  0  0  0  0  0  0  0  0
    4.5722   25.8530   13.6292 C   0  0  0  0  0  0  0  0  0  0  0  0
    4.6833   23.8904   12.1216 C   0  0  0  0  0  0  0  0  0  0  0  0
    1.6872   23.3059    8.6766 O   0  0  0  0  0  0  0  0  0  0  0  0
    3.6502   22.3700    8.2629 O   0  0  0  0  0  0  0  0  0  0  0  0
    5.5135   23.2630   12.8942 O   0  0  0  0  0  0  0  0  0  0  0  0
    2.9210   27.0959   11.6961 F   0  0  0  0  0  0  0  0  0  0  0  0
  1  6  1  0
  2  4  1  0
  2 11  2  0
  2 12  1  0
  3  4  2  0
  3  5  1  0
  4  7  1  0
  5  8  2  0
  5 14  1  0
  6  9  1  0
  7 10  2  0
  8  9  1  0
  8 10  1  0
 10 13  1  0
M  END
$$$$

     RDKit          3D

 12 13  0  0  0  0  0  0  0  0999 V2000
    2.2900   25.2056   15.2747 C   0  0  0  0  0  0  0  0  0  0  0  0
    2.4938   24.3577   14.2223 C   0  0  0  0  0  0  0  0  0  0  0  0
    2.5169   26.5878   15.0813 C   0  0  0  0  0  0  0  0  0  0  0  0
    2.8423   24.3442   10.5861 C   0  0  0  0  0  0  0  0  0  0  0  0
    2.7691   24.7930   12.9082 C   0  0  0  0  0  0  0  0  0  0  0  0
    2.8502   27.0870   13.8310 C   0  0  0  0  0  0  0  0  0  0  0  0
    2.9552   26.1956   12.7025 C   0  0  0  0  0  0  0  0  0  0  0  0
    3.1840   25.6864   10.3437 C   0  0  0  0  0  0  0  0  0  0  0  0
    3.1939   26.6461   11.3773 C   0  0  0  0  0  0  0  0  0  0  0  0
    2.4915   23.6122    9.5563 O   0  0  0  0  0  0  0  0  0  0  0  0
    2.8087   23.8992   11.8795 N   0  0  0  0  0  0  0  0  0  0  0  0
    2.7103   27.5089   16.5580 Cl  0  0  0  0  0  0  0  0  0  0  0  0
  1  2  2  0
  1  3  1  0
  2  5  1  0
  3  6  2  0
  3 12  1  0
  4  8  1  0
  4 10  2  0
  4 11  1  0
  5  7  1  0
  5 11  2  0
  6  7  1  0
  7  9  1  0
  8  9  2  0
M  END
$$$$

     RDKit          3D

 12 13  0  0  0  0  0  0  0  0999 V2000
    2.4224   24.1525    9.9738 C   0  0  0  0  0  0  0  0  0  0  0  0
    2.5358   24.9548   15.6494 C   0  0  0  0  0  0  0  0  0  0  0  0
    2.4684   26.3124   15.9344 C   0  0  0  0  0  0  0  0  0  0  0  0
    2.6583   26.8001   13.6632 C   0  0  0  0  0  0  0  0  0  0  0  0
    2.4991   27.2220   14.9480 C   0  0  0  0  0  0  0  0  0  0  0  0
    2.6730   24.5375   14.3383 C   0  0  0  0  0  0  0  0  0  0  0  0
    2.7209   25.1682   11.9356 C   0  0  2  0  0  0  0  0  0  0  0  0
    2.8856   25.4623    9.6260 C   0  0  0  0  0  0  0  0  0  0  0  0
    2.7338   25.4895   13.3314 C   0  0  0  0  0  0  0  0  0  0  0  0
    3.0623   26.1410   10.8993 C   0  0  0  0  0  0  0  0  0  0  0  0
    1.9174   23.4123    8.8836 N   0  0  0  0  0  0  0  0  0  0  0  0
    2.3417   24.0246   11.3660 N   0  0  0  0  0  0  0  0  0  0  0  0
  1  8  1  0
  1 11  2  0
  1 12  1  0
  2  3  2  0
  2  6  1  0
  3  5  1  0
  4  5  2  0
  4  9  1  0
  6  9  2  0
  7  9  1  6
  7 10  1  0
  7 12  1  0
  8 10  1  0
M  END
$$$$

     RDKit          3D

  9  8  0  0  0  0  0  0  0  0999 V2000
    2.5545   24.6431   13.5394 C   0  0  0  0  0  0  0  0  0  0  0  0
    2.8665   24.0644   11.1140 C   0  0  0  0  0  0  0  0  0  0  0  0
    2.7527   25.3302   12.1975 C   0  0  0  0  0  0  0  0  0  0  0  0
    3.4189   25.1554   14.6225 C   0  0  1  0  0  0  0  0  0  0  0  0
    3.5781   26.6304   14.2963 C   0  0  0  0  0  0  0  0  0  0  0  0
    1.9992   24.0745   10.1397 O   0  0  0  0  0  0  0  0  0  0  0  0
    2.8075   27.2185   15.3660 O   0  0  0  0  0  0  0  0  0  0  0  0
    2.9247   24.8663   15.9210 O   0  0  0  0  0  0  0  0  0  0  0  0
    3.0405   26.9410   13.0650 O   0  0  0  0  0  0  0  0  0  0  0  0
  1  3  1  0
  1  4  1  0
  2  3  1  0
  2  6  1  0
  4  5  1  0
  4  8  1  1
  5  7  1  0
  5  9  1  0
M  END
$$$$

     RDKit          3D

 13 14  0  0  0  0  0  0  0  0999 V2000
    2.4057   25.8273   14.6360 C   0  0  2  0  0  0  0  0  0  0  0  0
    2.4816   24.9077   12.6040 C   0  0  0  0  0  0  0  0  0  0  0  0
    2.5060   25.8520   16.1560 C   0  0  0  0  0  0  0  0  0  0  0  0
    2.6651   24.1442   10.3979 C   0  0  0  0  0  0  0  0  0  0  0  0
    2.8373   26.1706   12.2277 C   0  0  0  0  0  0  0  0  0  0  0  0
    3.0882   25.3984    9.9623 C   0  0  0  0  0  0  0  0  0  0  0  0
    3.1323   26.4462   10.8768 C   0  0  0  0  0  0  0  0  0  0  0  0
    3.2749   24.6502   17.8612 C   0  0  0  0  0  0  0  0  0  0  0  0
    2.9328   26.7419   16.8497 O   0  0  0  0  0  0  0  0  0  0  0  0
    2.3832   23.9093   11.7130 N   0  0  0  0  0  0  0  0  0  0  0  0
    2.2641   24.6874   13.9234 N   0  0  0  0  0  0  0  0  0  0  0  0
    2.4158   24.7851   16.5509 N   0  0  0  0  0  0  0  0  0  0  0  0
    2.7928   27.1182   13.6711 S   0  0  0  0  0  0  0  0  0  0  0  0
  1  3  1  1
  1 11  1  0
  1 13  1  0
  2  5  2  0
  2 10  1  0
  2 11  1  0
  3  9  2  0
  3 12  1  0
  4  6  1  0
  4 10  2  0
  5  7  1  0
  5 13  1  0
  6  7  2  0
  8 12  1  0
M  END
$$$$

     RDKit          3D

 15 16  0  0  0  0  0  0  0  0999 V2000
    2.0275   26.9418   13.7941 C   0  0  0  0  0  0  0  0  0  0  0  0
    2.2198   27.2438   15.0748 C   0  0  0  0  0  0  0  0  0  0  0  0
    2.9967   24.1870   10.3055 C   0  0  0  0  0  0  0  0  0  0  0  0
    2.9190   24.6965   11.5855 C   0  0  0  0  0  0  0  0  0  0  0  0
    3.3550   25.0620    9.2169 C   0  0  0  0  0  0  0  0  0  0  0  0
    3.1647   26.0304   11.8616 C   0  0  0  0  0  0  0  0  0  0  0  0
    3.1910   26.5282   13.2413 C   0  0  0  0  0  0  0  0  0  0  0  0
    3.2107   27.2132   15.6854 C   0  0  0  0  0  0  0  0  0  0  0  0
    3.6152   26.4193    9.5341 C   0  0  0  0  0  0  0  0  0  0  0  0
    3.5361   26.9271   10.8576 C   0  0  0  0  0  0  0  0  0  0  0  0
    4.5367   27.0651   15.1152 C   0  0  0  0  0  0  0  0  0  0  0  0
    2.8441   23.0578   10.0962 O   0  0  0  0  0  0  0  0  0  0  0  0
    3.1160   27.3265   17.0866 N   0  0  0  0  0  0  0  0  0  0  0  0
    4.3060   26.6391   13.8744 N   0  0  0  0  0  0  0  0  0  0  0  0
    3.3732   27.0515   16.0580 S   0  0  1  0  0  0  0  0  0  0  0  0
  1  2  1  0
  1  7  1  0
  2  8  1  0
  3  4  1  0
  3  5  1  0
  3 12  2  0
  4  6  2  0
  5  9  1  0
  6  7  1  0
  6 10  1  0
  7 14  2  0
  8 15  1  0
  9 10  2  0
 11 14  1  0
 11 15  1  0
 15 13  1  1
M  END
$$$$

     RDKit          3D

 13 13  0  0  0  0  0  0  0  0999 V2000
    1.9484   26.0027   14.2053 C   0  0  0  0  0  0  0  0  0  0  0  0
    1.9141   26.4461   15.5341 C   0  0  0  0  0  0  0  0  0  0  0  0
    3.1134   26.1911   13.4397 C   0  0  0  0  0  0  0  0  0  0  0  0
    3.0322   26.9956   16.1480 C   0  0  0  0  0  0  0  0  0  0  0  0
    3.2225   25.8801   12.0333 C   0  0  0  0  0  0  0  0  0  0  0  0
    3.3909   26.5684    9.7500 C   0  0  0  0  0  0  0  0  0  0  0  0
    3.2035   26.8876   11.0733 C   0  0  0  0  0  0  0  0  0  0  0  0
    3.5625   24.1841   10.2854 C   0  0  0  0  0  0  0  0  0  0  0  0
    3.5360   25.2387    9.3752 C   0  0  0  0  0  0  0  0  0  0  0  0
    4.2256   26.7106   14.0797 C   0  0  0  0  0  0  0  0  0  0  0  0
    4.1834   27.1379   15.3962 C   0  0  0  0  0  0  0  0  0  0  0  0
    3.8157   22.8815   10.0731 O   0  0  0  0  0  0  0  0  0  0  0  0
    3.2372   24.6530   11.6298 N   0  0  0  0  0  0  0  0  0  0  0  0
  1  2  2  0
  1  3  1  0
  2  4  1  0
  3  5  1  0
  3 10  2  0
  4 11  2  0
  5  7  2  3
  5 13  1  0
  6  7  1  0
  6  9  1  0
  8  9  2  0
  8 12  1  0
 10 11  1  0
M  END
$$$$

     RDKit          3D

 13 14  0  0  0  0  0  0  0  0999 V2000
    2.1298   25.7923   14.8674 C   0  0  0  0  0  0  0  0  0  0  0  0
    2.3807   24.9381   12.8244 C   0  0  0  0  0  0  0  0  0  0  0  0
    2.6466   26.2655   12.7011 C   0  0  0  0  0  0  0  0  0  0  0  0
    2.4452   26.9033   13.9769 C   0  0  0  0  0  0  0  0  0  0  0  0
    2.8003   24.6091   10.6079 C   0  0  0  0  0  0  0  0  0  0  0  0
    2.9079   27.1648   16.6383 C   0  0  0  0  0  0  0  0  0  0  0  0
    3.1140   26.8099   11.4493 C   0  0  0  0  0  0  0  0  0  0  0  0
    3.1856   25.9052   10.3770 C   0  0  0  0  0  0  0  0  0  0  0  0
    1.5624   23.6794    8.7513 O   0  0  0  0  0  0  0  0  0  0  0  0
    2.0815   24.6261   14.1378 N   0  0  0  0  0  0  0  0  0  0  0  0
    2.0597   25.8969   16.1970 N   0  0  0  0  0  0  0  0  0  0  0  0
    2.3999   24.1073   11.7762 N   0  0  0  0  0  0  0  0  0  0  0  0
    2.8272   23.4953    9.3098 S   0  0  0  0  0  0  0  0  0  0  0  0
  1  4  1  0
  1 10  2  0
  1 11  1  0
  2  3  2  0
  2 10  1  0
  2 12  1  0
  3  4  1  0
  3  7  1  0
  5  8  1  0
  5 12  2  0
  5 13  1  0
  6 11  1  0
  7  8  2  0
  9 13  1  0
M  END
$$$$

     RDKit          3D

 11 11  0  0  0  0  0  0  0  0999 V2000
    2.2261   27.1457   15.0317 C   0  0  0  0  0  0  0  0  0  0  0  0
    2.6208   24.0611    9.2298 C   0  0  0  0  0  0  0  0  0  0  0  0
    2.4656   24.3019   11.7604 C   0  0  0  0  0  0  0  0  0  0  0  0
    2.6037   25.0542   12.9256 C   0  0  0  0  0  0  0  0  0  0  0  0
    2.7674   24.8688   10.4918 C   0  0  0  0  0  0  0  0  0  0  0  0
    3.1416   26.2301   10.4682 C   0  0  0  0  0  0  0  0  0  0  0  0
    3.0294   26.3610   12.8892 C   0  0  0  0  0  0  0  0  0  0  0  0
    3.2754   26.9813   11.6472 C   0  0  0  0  0  0  0  0  0  0  0  0
    1.3547   23.7731    8.9960 O   0  0  0  0  0  0  0  0  0  0  0  0
    3.2606   27.1155   14.0568 O   0  0  0  0  0  0  0  0  0  0  0  0
    3.4520   22.9870    9.0523 O   0  0  0  0  0  0  0  0  0  0  0  0
  1 10  1  0
  2  5  1  0
  2  9  1  0
  2 11  1  0
  3  4  2  0
  3  5  1  0
  4  7  1  0
  5  6  2  0
  6  8  1  0
  7  8  2  0
  7 10  1  0
M  END
$$$$

     RDKit          3D

 15 15  0  0  0  0  0  0  0  0999 V2000
    2.1896   25.0466   14.7871 C   0  0  0  0  0  0  0  0  0  0  0  0
    2.2988   25.6127   16.0320 C   0  0  0  0  0  0  0  0  0  0  0  0
    2.7307   24.8778   10.0507 C   0  0  0  0  0  0  0  0  0  0  0  0
    2.7479   25.6793   13.6342 C   0  0  0  0  0  0  0  0  0  0  0  0
    2.9705   24.7785   11.4142 C   0  0  2  0  0  0  0  0  0  0  0  0
    2.9689   26.0320   11.1304 C   0  0  0  0  0  0  0  0  0  0  0  0
    3.0116   26.8091   16.1509 C   0  0  0  0  0  0  0  0  0  0  0  0
    3.5870   26.8175   13.8153 C   0  0  0  0  0  0  0  0  0  0  0  0
    3.6977   27.3638   15.1130 C   0  0  0  0  0  0  0  0  0  0  0  0
    4.0364   23.8787   11.8177 C   0  0  0  0  0  0  0  0  0  0  0  0
    1.6412   24.0058    9.7377 O   0  0  0  0  0  0  0  0  0  0  0  0
    3.5840   22.5531   12.0900 O   0  0  0  0  0  0  0  0  0  0  0  0
    3.7506   24.5471    9.2249 O   0  0  0  0  0  0  0  0  0  0  0  0
    2.2762   25.1667   12.3934 N   0  0  0  0  0  0  0  0  0  0  0  0
    3.0937   27.5888   17.2670 N   0  0  0  0  0  0  0  0  0  0  0  0
  1  2  2  0
  1  4  1  0
  2  7  1  0
  3  5  1  0
  3 11  1  0
  3 13  1  0
  4  8  2  0
  4 14  1  0
  5  6  1  6
  5 10  1  0
  5 14  1  0
  7  9  2  0
  7 15  1  0
  8  9  1  0
 10 12  1  0
M  END
$$$$

     RDKit          3D

 11 11  0  0  0  0  0  0  0  0999 V2000
    2.3402   24.1999   12.2439 C   0  0  0  0  0  0  0  0  0  0  0  0
    2.6934   23.8767    9.8516 C   0  0  0  0  0  0  0  0  0  0  0  0
    2.7615   24.7441   11.0504 C   0  0  0  0  0  0  0  0  0  0  0  0
    2.6759   26.2076   13.3797 C   0  0  0  0  0  0  0  0  0  0  0  0
    3.1478   26.8390   12.1952 C   0  0  0  0  0  0  0  0  0  0  0  0
    3.1998   26.0891   11.0224 C   0  0  0  0  0  0  0  0  0  0  0  0
    3.6811   26.6327   15.4960 C   0  0  0  0  0  0  0  0  0  0  0  0
    1.7153   24.0649    9.1128 O   0  0  0  0  0  0  0  0  0  0  0  0
    3.5058   22.9303    9.7879 O   0  0  0  0  0  0  0  0  0  0  0  0
    2.2955   24.9295   13.3738 N   0  0  0  0  0  0  0  0  0  0  0  0
    2.6270   26.9933   14.5631 N   0  0  0  0  0  0  0  0  0  0  0  0
  1  3  2  0
  1 10  1  0
  2  3  1  0
  2  8  2  0
  2  9  1  0
  3  6  1  0
  4  5  1  0
  4 10  2  0
  4 11  1  0
  5  6  2  0
  7 11  1  0
M  END
$$$$

     RDKit          3D

 10  9  0  0  0  0  0  0  0  0999 V2000
    2.1274   24.3341    9.1983 C   0  0  0  0  0  0  0  0  0  0  0  0
    2.6154   24.1284   10.6026 C   0  0  2  0  0  0  0  0  0  0  0  0
    2.6644   25.3756   11.3599 C   0  0  0  0  0  0  0  0  0  0  0  0
    3.2816   25.2258   12.6910 C   0  0  1  0  0  0  0  0  0  0  0  0
    3.7604   26.5457   13.3097 C   0  0  0  0  0  0  0  0  0  0  0  0
    1.7523   23.1306    8.6622 O   0  0  0  0  0  0  0  0  0  0  0  0
    2.3975   24.4559   13.5131 O   0  0  0  0  0  0  0  0  0  0  0  0
    3.1095   26.4755   10.7594 O   0  0  0  0  0  0  0  0  0  0  0  0
    2.9097   27.1483   14.1437 O   0  0  0  0  0  0  0  0  0  0  0  0
    3.3551   23.0303   10.8940 O   0  0  0  0  0  0  0  0  0  0  0  0
  1  2  1  0
  1  6  1  0
  2  3  1  0
  2 10  1  6
  3  4  1  0
  3  8  1  0
  4  5  1  0
  4  7  1  1
  5  9  1  0
M  END
$$$$

     RDKit          3D

 19 20  0  0  0  0  0  0  0  0999 V2000
    2.1470   25.9696   14.7097 C   0  0  0  0  0  0  0  0  0  0  0  0
    2.3361   26.3523   16.0465 C   0  0  0  0  0  0  0  0  0  0  0  0
    2.5487   24.4999   12.6544 C   0  0  0  0  0  0  0  0  0  0  0  0
    2.7032   23.6328    9.6326 C   0  0  0  0  0  0  0  0  0  0  0  0
    2.8557   24.9213   14.1179 C   0  0  0  0  0  0  0  0  0  0  0  0
    3.1274   24.9508   10.1532 C   0  0  0  0  0  0  0  0  0  0  0  0
    3.0622   25.4275   11.5252 C   0  0  0  0  0  0  0  0  0  0  0  0
    3.2879   25.6622   16.7935 C   0  0  0  0  0  0  0  0  0  0  0  0
    3.5456   25.8502    9.1221 C   0  0  0  0  0  0  0  0  0  0  0  0
    3.4399   26.7236   11.7919 C   0  0  0  0  0  0  0  0  0  0  0  0
    3.7767   24.1985   14.9096 C   0  0  0  0  0  0  0  0  0  0  0  0
    3.8798   27.5623   10.7776 C   0  0  0  0  0  0  0  0  0  0  0  0
    4.0380   24.6363   16.2134 C   0  0  0  0  0  0  0  0  0  0  0  0
    3.9158   27.1485    9.4600 C   0  0  0  0  0  0  0  0  0  0  0  0
    4.6274   23.0495   14.5177 C   0  0  0  0  0  0  0  0  0  0  0  0
    1.5340   23.4076    9.2194 O   0  0  0  0  0  0  0  0  0  0  0  0
    3.6248   22.7626    9.4947 O   0  0  0  0  0  0  0  0  0  0  0  0
    4.2112   21.9179   14.7215 O   0  0  0  0  0  0  0  0  0  0  0  0
    5.7686   23.1989   14.0256 O   0  0  0  0  0  0  0  0  0  0  0  0
  1  2  2  0
  1  5  1  0
  2  8  1  0
  3  5  1  0
  3  7  1  0
  4  6  1  0
  4 16  2  0
  4 17  1  0
  5 11  2  0
  6  7  2  0
  6  9  1  0
  7 10  1  0
  8 13  2  0
  9 14  2  0
 10 12  2  0
 11 13  1  0
 11 15  1  0
 12 14  1  0
 15 18  2  0
 15 19  1  0
M  END
$$$$

     RDKit          3D

 13 13  0  0  0  0  0  0  0  0999 V2000
    2.5218   24.1651   10.3598 C   0  0  0  0  0  0  0  0  0  0  0  0
    2.8988   25.0737   13.9062 C   0  0  0  0  0  0  0  0  0  0  0  0
    2.8750   25.1760   12.4657 C   0  0  0  0  0  0  0  0  0  0  0  0
    3.0618   26.0163   16.1591 C   0  0  0  0  0  0  0  0  0  0  0  0
    3.1335   26.4030   11.8198 C   0  0  0  0  0  0  0  0  0  0  0  0
    3.0523   26.1675   14.6795 C   0  0  0  0  0  0  0  0  0  0  0  0
    3.1247   26.4251   10.4460 C   0  0  0  0  0  0  0  0  0  0  0  0
    2.3626   23.1816    9.6588 O   0  0  0  0  0  0  0  0  0  0  0  0
    3.1072   23.9030   14.3613 O   0  0  0  0  0  0  0  0  0  0  0  0
    3.8018   25.0485   16.7450 O   0  0  0  0  0  0  0  0  0  0  0  0
    2.5298   24.0757   11.6952 N   0  0  0  0  0  0  0  0  0  0  0  0
    2.8293   25.3541    9.7753 N   0  0  0  0  0  0  0  0  0  0  0  0
    2.9619   27.2490   16.8452 N   0  0  0  0  0  0  0  0  0  0  0  0
  1  8  2  0
  1 11  1  0
  1 12  1  0
  2  3  1  0
  2  6  1  0
  2  9  2  0
  3  5  2  0
  3 11  1  0
  4  6  1  0
  4 10  2  0
  4 13  1  0
  5  7  1  0
  7 12  2  0
M  END
$$$$

     RDKit          3D

 14 14  0  0  0  0  0  0  0  0999 V2000
    1.7160   25.0066   14.2434 C   0  0  0  0  0  0  0  0  0  0  0  0
    1.6896   25.8015   15.4070 C   0  0  0  0  0  0  0  0  0  0  0  0
    2.8667   26.3149   15.9495 C   0  0  2  0  0  0  0  0  0  0  0  0
    2.9001   27.6486   16.9253 C   0  0  0  0  0  0  0  0  0  0  0  0
    3.1507   23.1374    9.5335 C   0  0  0  0  0  0  0  0  0  0  0  0
    3.0423   23.9425   12.4159 C   0  0  0  0  0  0  0  0  0  0  0  0
    2.9671   24.6994   13.7097 C   0  0  1  0  0  0  0  0  0  0  0  0
    3.3276   24.4638   10.1319 C   0  0  0  0  0  0  0  0  0  0  0  0
    3.7872   25.4202    9.1541 C   0  0  0  0  0  0  0  0  0  0  0  0
    3.8819   26.7059    9.6136 C   0  0  0  0  0  0  0  0  0  0  0  0
    4.0692   22.9410    8.3978 C   0  0  0  0  0  0  0  0  0  0  0  0
    4.1384   25.1549   14.3335 C   0  0  0  0  0  0  0  0  0  0  0  0
    4.0702   25.9072   15.4763 C   0  0  0  0  0  0  0  0  0  0  0  0
    3.8576   24.5462   11.4029 N   0  0  0  0  0  0  0  0  0  0  0  0
  1  2  2  0
  1  7  1  0
  2  3  1  0
  3  4  1  6
  3 13  1  0
  5  8  1  0
  5 11  1  0
  7  6  1  6
  6 14  1  0
  7 12  1  0
  8  9  1  0
  8 14  1  0
  9 10  1  0
 12 13  2  0
M  END
$$$$

     RDKit          3D

 13 13  0  0  0  0  0  0  0  0999 V2000
    2.2988   26.9911   14.3823 C   0  0  0  0  0  0  0  0  0  0  0  0
    2.5509   24.7437   10.5414 C   0  0  0  0  0  0  0  0  0  0  0  0
    2.6614   24.9595   11.9191 C   0  0  0  0  0  0  0  0  0  0  0  0
    2.9431   25.7395    9.6184 C   0  0  0  0  0  0  0  0  0  0  0  0
    3.2993   26.1240   12.3614 C   0  0  0  0  0  0  0  0  0  0  0  0
    3.4853   26.4285   13.7763 C   0  0  0  0  0  0  0  0  0  0  0  0
    3.4908   26.6856   16.2917 C   0  0  0  0  0  0  0  0  0  0  0  0
    3.5231   26.9091   10.0690 C   0  0  0  0  0  0  0  0  0  0  0  0
    3.7268   27.0827   11.4252 C   0  0  0  0  0  0  0  0  0  0  0  0
    4.4486   25.8812   14.5653 C   0  0  0  0  0  0  0  0  0  0  0  0
    2.1138   23.6196   10.0622 O   0  0  0  0  0  0  0  0  0  0  0  0
    2.1672   24.0444   12.8245 O   0  0  0  0  0  0  0  0  0  0  0  0
    2.4397   27.1561   15.7443 N   0  0  0  0  0  0  0  0  0  0  0  0
  1  6  1  0
  1 13  1  0
  2  3  2  0
  2  4  1  0
  2 11  1  0
  3  5  1  0
  3 12  1  0
  4  8  2  0
  5  6  1  0
  5  9  2  0
  6 10  2  0
  7 13  2  0
  8  9  1  0
M  END
$$$$

     RDKit          3D

 12 13  0  0  0  0  0  0  0  0999 V2000
    2.4893   26.8502   13.6229 C   0  0  0  0  0  0  0  0  0  0  0  0
    2.8943   25.1895    9.2616 C   0  0  0  0  0  0  0  0  0  0  0  0
    3.0778   25.2945   11.6063 C   0  0  0  0  0  0  0  0  0  0  0  0
    3.3773   25.8535   12.9094 C   0  0  0  0  0  0  0  0  0  0  0  0
    3.3112   25.9762   10.3693 C   0  0  2  0  0  0  0  0  0  0  0  0
    3.6021   27.3843   10.3156 C   0  0  0  0  0  0  0  0  0  0  0  0
    4.2838   27.1075   15.1612 C   0  0  0  0  0  0  0  0  0  0  0  0
    5.2860   26.8351   14.1495 C   0  0  0  0  0  0  0  0  0  0  0  0
    2.5941   23.7145   10.0511 N   0  0  0  0  0  0  0  0  0  0  0  0
    2.6856   24.0133   11.3360 N   0  0  0  0  0  0  0  0  0  0  0  0
    2.9858   27.2338   14.7966 N   0  0  0  0  0  0  0  0  0  0  0  0
    4.8152   25.9803   13.1050 N   0  0  0  0  0  0  0  0  0  0  0  0
  1  4  1  0
  1 11  1  0
  2  5  1  0
  2  9  1  0
  3  4  1  0
  3  5  1  0
  3 10  2  0
  4 12  2  0
  5  6  1  1
  7  8  1  0
  7 11  1  0
  8 12  1  0
  9 10  1  0
M  END
$$$$

     RDKit          3D

 14 15  0  0  0  0  0  0  0  0999 V2000
    1.8105   26.9244   14.6573 C   0  0  0  0  0  0  0  0  0  0  0  0
    1.9143   25.5191   15.0315 C   0  0  0  0  0  0  0  0  0  0  0  0
    2.5261   24.0754   11.6494 C   0  0  0  0  0  0  0  0  0  0  0  0
    2.4924   25.0291   12.6512 C   0  0  0  0  0  0  0  0  0  0  0  0
    2.6216   27.2378   13.4572 C   0  0  0  0  0  0  0  0  0  0  0  0
    2.8147   23.3981    9.3288 C   0  0  0  0  0  0  0  0  0  0  0  0
    2.8110   24.4517   10.3370 C   0  0  0  0  0  0  0  0  0  0  0  0
    2.7660   26.3448   12.3332 C   0  0  0  0  0  0  0  0  0  0  0  0
    3.1416   25.7957    9.9775 C   0  0  0  0  0  0  0  0  0  0  0  0
    3.0997   26.7558   11.0369 C   0  0  0  0  0  0  0  0  0  0  0  0
    5.1650   23.4058    9.0126 C   0  0  0  0  0  0  0  0  0  0  0  0
    1.6960   23.3025    8.8091 O   0  0  0  0  0  0  0  0  0  0  0  0
    3.9619   23.0990    8.7550 O   0  0  0  0  0  0  0  0  0  0  0  0
    2.1589   24.6125   13.9628 N   0  0  0  0  0  0  0  0  0  0  0  0
  1  2  1  0
  1  5  1  0
  2 14  2  0
  3  4  1  0
  3  7  2  0
  4  8  2  0
  4 14  1  0
  5  8  1  0
  6  7  1  0
  6 12  2  0
  6 13  1  0
  7  9  1  0
  8 10  1  0
  9 10  2  0
 11 13  1  0
M  END
$$$$

     RDKit          3D

 12 13  0  0  0  0  0  0  0  0999 V2000
    2.4072   26.1447   13.2893 C   0  0  0  0  0  0  0  0  0  0  0  0
    2.4762   26.8773   14.4514 C   0  0  0  0  0  0  0  0  0  0  0  0
    2.9938   24.9558    9.0360 C   0  0  0  0  0  0  0  0  0  0  0  0
    3.0993   25.6795   10.2192 C   0  0  0  0  0  0  0  0  0  0  0  0
    3.3255   23.6141    9.0317 C   0  0  0  0  0  0  0  0  0  0  0  0
    3.4777   25.0078   11.3780 C   0  0  0  0  0  0  0  0  0  0  0  0
    3.5642   25.7962   12.6159 C   0  0  0  0  0  0  0  0  0  0  0  0
    3.7594   23.6539   11.2907 C   0  0  0  0  0  0  0  0  0  0  0  0
    3.7164   27.2186   14.9610 C   0  0  0  0  0  0  0  0  0  0  0  0
    4.7886   26.1703   13.1297 C   0  0  0  0  0  0  0  0  0  0  0  0
    4.8887   26.9076   14.2767 C   0  0  0  0  0  0  0  0  0  0  0  0
    3.6104   23.0075   10.1380 O   0  0  0  0  0  0  0  0  0  0  0  0
  1  2  2  0
  1  7  1  0
  2  9  1  0
  3  4  1  0
  3  5  2  0
  4  6  1  0
  5 12  1  0
  6  7  1  0
  6  8  2  0
  7 10  2  0
  8 12  1  0
  9 11  2  0
 10 11  1  0
M  END
$$$$

     RDKit          3D

 12 12  0  0  0  0  0  0  0  0999 V2000
    2.1276   26.4559   15.4874 C   0  0  0  0  0  0  0  0  0  0  0  0
    2.5739   24.5781   13.8594 C   0  0  0  0  0  0  0  0  0  0  0  0
    2.5066   25.9372   14.1015 C   0  0  0  0  0  0  0  0  0  0  0  0
    2.8390   24.0579   12.5988 C   0  0  0  0  0  0  0  0  0  0  0  0
    2.8968   26.2598   11.6812 C   0  0  0  0  0  0  0  0  0  0  0  0
    2.6968   26.8052   12.9777 C   0  0  0  0  0  0  0  0  0  0  0  0
    2.9219   24.8801   11.4936 C   0  0  0  0  0  0  0  0  0  0  0  0
    1.6488   24.1658    9.4011 O   0  0  0  0  0  0  0  0  0  0  0  0
    3.4605   22.7980   10.0512 O   0  0  0  0  0  0  0  0  0  0  0  0
    3.9368   24.9396    9.1327 O   0  0  0  0  0  0  0  0  0  0  0  0
    3.0532   26.2506   16.6439 N   0  0  0  0  0  0  0  0  0  0  0  0
    3.0035   24.1787    9.9115 S   0  0  0  0  0  0  0  0  0  0  0  0
  1  3  1  0
  1 11  1  0
  2  3  2  0
  2  4  1  0
  3  6  1  0
  4  7  2  0
  5  6  2  0
  5  7  1  0
  7 12  1  0
  8 12  1  0
  9 12  1  0
 10 12  1  0
M  END
$$$$
