
     RDKit          3D

 31 35  0  0  0  0  0  0  0  0999 V2000
    1.2045   25.7075   15.9165 C   0  0  0  0  0  0  0  0  0  0  0  0
    1.4896   25.9243   14.5874 C   0  0  0  0  0  0  0  0  0  0  0  0
    2.1560   23.3916    8.4088 C   0  0  0  0  0  0  0  0  0  0  0  0
    2.6371   23.6244   10.9967 C   0  0  0  0  0  0  0  0  0  0  0  0
    2.8722   24.9813   11.4036 C   0  0  0  0  0  0  0  0  0  0  0  0
    2.6720   25.4698   13.9983 C   0  0  0  0  0  0  0  0  0  0  0  0
    2.8133   25.7974   12.5736 C   0  0  0  0  0  0  0  0  0  0  0  0
    3.2018   23.3300    9.5432 C   0  0  2  0  0  0  0  0  0  0  0  0
    3.3313   24.6841   16.2323 C   0  0  0  0  0  0  0  0  0  0  0  0
    3.2670   25.8722   10.3987 C   0  0  0  0  0  0  0  0  0  0  0  0
    3.2540   27.1302   10.8740 C   0  0  0  0  0  0  0  0  0  0  0  0
    3.6272   24.8226   14.8650 C   0  0  0  0  0  0  0  0  0  0  0  0
    3.6019   28.1712   10.0532 C   0  0  0  0  0  0  0  0  0  0  0  0
    3.6780   25.5507    9.0693 C   0  0  0  0  0  0  0  0  0  0  0  0
    4.0957   26.6461    8.2532 C   0  0  0  0  0  0  0  0  0  0  0  0
    4.0002   27.9484    8.7574 C   0  0  0  0  0  0  0  0  0  0  0  0
    4.9424   24.3038   14.3127 C   0  0  2  0  0  0  0  0  0  0  0  0
    5.3914   22.8854   14.3709 C   0  0  0  0  0  0  0  0  0  0  0  0
    6.1223   26.4979   14.7248 C   0  0  0  0  0  0  0  0  0  0  0  0
    6.1640   25.1130   14.5960 C   0  0  0  0  0  0  0  0  0  0  0  0
    7.3648   24.4728   14.6533 C   0  0  0  0  0  0  0  0  0  0  0  0
    7.2750   27.2100   15.0578 C   0  0  0  0  0  0  0  0  0  0  0  0
    8.5492   25.1789   14.9536 C   0  0  0  0  0  0  0  0  0  0  0  0
    8.4828   26.5601   15.1875 C   0  0  0  0  0  0  0  0  0  0  0  0
    0.9609   23.5822    8.7962 O   0  0  0  0  0  0  0  0  0  0  0  0
    2.1619   25.1702   16.6166 O   0  0  0  0  0  0  0  0  0  0  0  0
    4.0302   24.1301   17.1093 O   0  0  0  0  0  0  0  0  0  0  0  0
    4.6591   21.9458   13.9213 O   0  0  0  0  0  0  0  0  0  0  0  0
    2.9426   27.1154   12.1869 N   0  0  0  0  0  0  0  0  0  0  0  0
    3.9631   24.3042    8.7895 N   0  0  0  0  0  0  0  0  0  0  0  0
    9.8356   27.4947   15.6503 Cl  0  0  0  0  0  0  0  0  0  0  0  0
  1  2  2  0
  1 26  1  0
  2  6  1  0
  8  3  1  6
  3 25  1  0
  4  5  1  0
  4  8  1  0
  5  7  2  0
  5 10  1  0
  6  7  1  0
  6 12  2  0
  7 29  1  0
  8 30  1  0
  9 12  1  0
  9 26  1  0
  9 27  2  0
 10 11  1  0
 10 14  2  0
 11 13  2  0
 11 29  1  0
 12 17  1  0
 13 16  1  0
 14 15  1  0
 14 30  1  0
 15 16  2  0
 17 18  1  1
 17 20  1  0
 18 28  2  0
 19 20  1  0
 19 22  1  0
 20 21  2  0
 21 23  1  0
 22 24  2  0
 23 24  1  0
 24 31  1  0
M  END
$$$$

     RDKit          3D

 12 13  0  0  0  0  0  0  0  0999 V2000
    2.0760   25.4062   15.4919 C   0  0  0  0  0  0  0  0  0  0  0  0
    2.2621   24.8467   14.2334 C   0  0  0  0  0  0  0  0  0  0  0  0
    2.4284   26.7074   15.6800 C   0  0  0  0  0  0  0  0  0  0  0  0
    2.8682   25.6178   10.7144 C   0  0  0  0  0  0  0  0  0  0  0  0
    2.7940   25.5434   13.1675 C   0  0  0  0  0  0  0  0  0  0  0  0
    3.1089   25.0024    9.4921 C   0  0  0  0  0  0  0  0  0  0  0  0
    3.0571   24.9195   11.8866 C   0  0  0  0  0  0  0  0  0  0  0  0
    3.1331   26.8379   13.4079 C   0  0  0  0  0  0  0  0  0  0  0  0
    2.9860   27.3999   14.6499 C   0  0  0  0  0  0  0  0  0  0  0  0
    3.4392   23.5769   11.7808 C   0  0  0  0  0  0  0  0  0  0  0  0
    3.4496   23.7037    9.4636 C   0  0  0  0  0  0  0  0  0  0  0  0
    3.6613   23.0246   10.5910 N   0  0  0  0  0  0  0  0  0  0  0  0
  1  2  2  0
  1  3  1  0
  2  5  1  0
  3  9  2  0
  4  6  2  0
  4  7  1  0
  5  7  1  0
  5  8  2  0
  6 11  1  0
  7 10  2  0
  8  9  1  0
 10 12  1  0
 11 12  2  0
M  END
$$$$

     RDKit          3D

 12 13  0  0  0  0  0  0  0  0999 V2000
    2.1529   27.0093   14.7899 C   0  0  0  0  0  0  0  0  0  0  0  0
    2.3698   25.9082   15.6241 C   0  0  0  0  0  0  0  0  0  0  0  0
    2.3225   26.8947   13.4197 C   0  0  0  0  0  0  0  0  0  0  0  0
    2.7445   24.6977   15.1041 C   0  0  0  0  0  0  0  0  0  0  0  0
    2.7717   25.6786   12.8955 C   0  0  0  0  0  0  0  0  0  0  0  0
    2.9751   24.5934   13.7429 C   0  0  0  0  0  0  0  0  0  0  0  0
    3.0083   25.4719   11.5322 C   0  0  0  0  0  0  0  0  0  0  0  0
    3.5572   24.2996   11.0305 C   0  0  0  0  0  0  0  0  0  0  0  0
    3.8009   23.2787   11.8845 C   0  0  0  0  0  0  0  0  0  0  0  0
    3.9158   22.9765    9.0202 C   0  0  0  0  0  0  0  0  0  0  0  0
    3.4966   23.4329   13.1968 N   0  0  0  0  0  0  0  0  0  0  0  0
    3.9088   24.2166    9.7225 N   0  0  0  0  0  0  0  0  0  0  0  0
  1  2  2  0
  1  3  1  0
  2  4  1  0
  3  5  2  0
  4  6  2  0
  5  6  1  0
  5  7  1  0
  6 11  1  0
  7  8  2  0
  8  9  1  0
  8 12  1  0
  9 11  2  0
 10 12  1  0
M  END
$$$$

     RDKit          3D

 12 12  0  0  0  0  0  0  0  0999 V2000
    1.9856   27.1071   13.0763 C   0  0  0  0  0  0  0  0  0  0  0  0
    2.5196   23.5877    9.3749 C   0  0  0  0  0  0  0  0  0  0  0  0
    2.6398   25.8719   13.5143 C   0  0  1  0  0  0  0  0  0  0  0  0
    2.8493   24.7323   12.6920 C   0  0  0  0  0  0  0  0  0  0  0  0
    3.4950   23.2252    8.3604 C   0  0  0  0  0  0  0  0  0  0  0  0
    3.4751   25.7255   14.6263 C   0  0  0  0  0  0  0  0  0  0  0  0
    3.8263   23.9488   13.3063 C   0  0  0  0  0  0  0  0  0  0  0  0
    5.3589   24.1934   15.1797 C   0  0  0  0  0  0  0  0  0  0  0  0
    1.2948   23.8002    9.1055 O   0  0  0  0  0  0  0  0  0  0  0  0
    2.2966   24.4582   11.4593 N   0  0  0  0  0  0  0  0  0  0  0  0
    2.9099   23.5386   10.6578 N   0  0  0  0  0  0  0  0  0  0  0  0
    4.2089   24.5700   14.4375 N   0  0  0  0  0  0  0  0  0  0  0  0
  3  1  1  6
  2  5  1  0
  2  9  2  0
  2 11  1  0
  3  4  1  0
  3  6  1  0
  4  7  1  0
  4 10  2  3
  6 12  1  0
  7 12  1  0
  8 12  1  0
 10 11  1  0
M  END
$$$$

     RDKit          3D

 19 20  0  0  0  0  0  0  0  0999 V2000
    2.8362   25.8408   11.3163 C   0  0  0  0  0  0  0  0  0  0  0  0
    3.0399   25.1108   10.1172 C   0  0  0  0  0  0  0  0  0  0  0  0
    3.3767   27.1042   11.5126 C   0  0  0  0  0  0  0  0  0  0  0  0
    3.6369   25.7435    9.0980 C   0  0  0  0  0  0  0  0  0  0  0  0
    3.8106   24.1435   13.7235 C   0  0  0  0  0  0  0  0  0  0  0  0
    4.1389   27.0311    9.2038 C   0  0  0  0  0  0  0  0  0  0  0  0
    4.0279   27.6889   10.3919 C   0  0  0  0  0  0  0  0  0  0  0  0
    4.1735   24.8694   14.8403 C   0  0  0  0  0  0  0  0  0  0  0  0
    4.4119   22.7826   11.6527 C   0  0  1  0  0  0  0  0  0  0  0  0
    4.7543   23.6925   12.8124 C   0  0  0  0  0  0  0  0  0  0  0  0
    4.9320   21.3616   12.0057 C   0  0  0  0  0  0  0  0  0  0  0  0
    5.5159   25.1285   15.1122 C   0  0  0  0  0  0  0  0  0  0  0  0
    6.1565   24.0338   13.0861 C   0  0  0  0  0  0  0  0  0  0  0  0
    1.2165   23.5030    9.3619 O   0  0  0  0  0  0  0  0  0  0  0  0
    3.0140   22.7561   11.3759 O   0  0  0  0  0  0  0  0  0  0  0  0
    3.4763   22.7185    8.9094 O   0  0  0  0  0  0  0  0  0  0  0  0
    7.1100   23.6995   12.2706 O   0  0  0  0  0  0  0  0  0  0  0  0
    6.4732   24.7232   14.2072 N   0  0  0  0  0  0  0  0  0  0  0  0
    2.5766   23.4681    9.9433 S   0  0  0  0  0  0  0  0  0  0  0  0
  1  2  2  0
  1  3  1  0
  2  4  1  0
  2 19  1  0
  3  7  2  0
  4  6  2  0
  5  8  1  0
  5 10  2  0
  6  7  1  0
  8 12  1  0
  9 10  1  0
  9 11  1  1
  9 15  1  0
 10 13  1  0
 12 18  2  0
 13 17  2  0
 13 18  1  0
 14 19  1  0
 15 19  1  0
 16 19  1  0
M  END
$$$$

     RDKit          3D

 13 14  0  0  0  0  0  0  0  0999 V2000
    2.3532   24.2146    9.5484 C   0  0  0  0  0  0  0  0  0  0  0  0
    2.5509   24.4229   14.3893 C   0  0  0  0  0  0  0  0  0  0  0  0
    2.4771   25.1423   15.5907 C   0  0  0  0  0  0  0  0  0  0  0  0
    2.4643   26.5248   15.5574 C   0  0  0  0  0  0  0  0  0  0  0  0
    2.6306   27.1502   14.3315 C   0  0  0  0  0  0  0  0  0  0  0  0
    2.9035   24.4221   11.8469 C   0  0  0  0  0  0  0  0  0  0  0  0
    2.7031   25.0759   13.1523 C   0  0  0  0  0  0  0  0  0  0  0  0
    2.7393   26.4640   13.1690 C   0  0  0  0  0  0  0  0  0  0  0  0
    3.3449   23.3021    9.3477 C   0  0  0  0  0  0  0  0  0  0  0  0
    3.6757   22.6549    8.0185 C   0  0  0  0  0  0  0  0  0  0  0  0
    4.1565   22.9667   10.4294 C   0  0  0  0  0  0  0  0  0  0  0  0
    3.9139   23.5012   11.6579 C   0  0  0  0  0  0  0  0  0  0  0  0
    2.1409   24.7709   10.7938 N   0  0  0  0  0  0  0  0  0  0  0  0
  1  9  2  0
  1 13  1  0
  2  3  2  0
  2  7  1  0
  3  4  1  0
  4  5  2  0
  5  8  1  0
  6  7  1  0
  6 12  1  0
  6 13  2  0
  7  8  2  0
  9 10  1  0
  9 11  1  0
 11 12  2  0
M  END
$$$$

     RDKit          3D

 15 16  0  0  0  0  0  0  0  0999 V2000
    2.8936   24.3802   11.8099 C   0  0  0  0  0  0  0  0  0  0  0  0
    2.7664   24.8252   10.4898 C   0  0  0  0  0  0  0  0  0  0  0  0
    3.1464   25.3068   12.8120 C   0  0  0  0  0  0  0  0  0  0  0  0
    3.0087   25.7488   15.2541 C   0  0  0  0  0  0  0  0  0  0  0  0
    2.9138   26.1257   10.1525 C   0  0  0  0  0  0  0  0  0  0  0  0
    3.1212   27.0590   11.1417 C   0  0  0  0  0  0  0  0  0  0  0  0
    3.3346   25.4326   16.5552 C   0  0  0  0  0  0  0  0  0  0  0  0
    3.2184   26.6718   12.4666 C   0  0  0  0  0  0  0  0  0  0  0  0
    3.4458   24.9473   14.2191 C   0  0  0  0  0  0  0  0  0  0  0  0
    3.6836   23.2137    8.9504 C   0  0  0  0  0  0  0  0  0  0  0  0
    4.0700   24.2869   16.8328 C   0  0  0  0  0  0  0  0  0  0  0  0
    4.1937   23.8066   14.5374 C   0  0  0  0  0  0  0  0  0  0  0  0
    2.5321   23.8838    9.4524 N   0  0  0  0  0  0  0  0  0  0  0  0
    3.3136   22.2084    8.0307 N   0  0  0  0  0  0  0  0  0  0  0  0
    4.4831   23.4797   15.8293 N   0  0  0  0  0  0  0  0  0  0  0  0
  1  2  2  0
  1  3  1  0
  2  5  1  0
  2 13  1  0
  3  8  2  0
  3  9  1  0
  4  7  2  0
  4  9  1  0
  5  6  2  0
  6  8  1  0
  7 11  1  0
  9 12  2  0
 10 13  1  0
 10 14  1  0
 11 15  2  0
 12 15  1  0
M  END
$$$$

     RDKit          3D

 14 15  0  0  0  0  0  0  0  0999 V2000
    2.0427   26.3541   15.0516 C   0  0  0  0  0  0  0  0  0  0  0  0
    2.2729   24.9944   15.1446 C   0  0  0  0  0  0  0  0  0  0  0  0
    2.2304   26.9952   13.8355 C   0  0  0  0  0  0  0  0  0  0  0  0
    2.7197   24.3272   14.0746 C   0  0  0  0  0  0  0  0  0  0  0  0
    2.9102   24.9030   12.8622 C   0  0  0  0  0  0  0  0  0  0  0  0
    2.6687   26.2707   12.7386 C   0  0  0  0  0  0  0  0  0  0  0  0
    2.8538   26.8886   11.4857 C   0  0  0  0  0  0  0  0  0  0  0  0
    3.1531   23.1525    8.7537 C   0  0  0  0  0  0  0  0  0  0  0  0
    3.3622   24.1987   11.7129 C   0  0  0  0  0  0  0  0  0  0  0  0
    3.2079   26.1291   10.3857 C   0  0  0  0  0  0  0  0  0  0  0  0
    3.4943   24.8208   10.4764 C   0  0  0  0  0  0  0  0  0  0  0  0
    4.0866   24.0705    9.3547 C   0  0  0  0  0  0  0  0  0  0  0  0
    1.8099   23.3900    8.8961 N   0  0  0  0  0  0  0  0  0  0  0  0
    3.4220   22.2270    7.9829 N   0  0  0  0  0  0  0  0  0  0  0  0
  1  2  2  0
  1  3  1  0
  2  4  1  0
  3  6  2  0
  4  5  2  0
  5  6  1  0
  5  9  1  0
  6  7  1  0
  7 10  1  0
  8 12  1  0
  8 13  2  0
  8 14  1  0
  9 11  1  0
 10 11  2  0
 11 12  1  0
M  END
$$$$

     RDKit          3D

 26 27  0  0  0  0  0  0  0  0999 V2000
    2.5831   24.3722    9.8937 C   0  0  0  0  0  0  0  0  0  0  0  0
    2.4653   24.8190   11.9907 C   0  0  2  0  0  0  0  0  0  0  0  0
    2.5901   26.4815   14.2845 C   0  0  0  0  0  0  0  0  0  0  0  0
    2.5866   27.2961   15.3999 C   0  0  0  0  0  0  0  0  0  0  0  0
    3.0398   24.2198   13.2212 C   0  0  2  0  0  0  0  0  0  0  0  0
    3.0059   25.1550   14.3785 C   0  0  0  0  0  0  0  0  0  0  0  0
    2.9966   26.7732   16.5928 C   0  0  0  0  0  0  0  0  0  0  0  0
    3.3851   24.6335   15.6168 C   0  0  0  0  0  0  0  0  0  0  0  0
    3.1677   25.6335   10.0688 C   0  0  0  0  0  0  0  0  0  0  0  0
    3.4063   25.4487   16.7296 C   0  0  0  0  0  0  0  0  0  0  0  0
    3.8218   22.8169    8.5699 C   0  0  0  0  0  0  0  0  0  0  0  0
    3.8334   26.5322    9.0954 C   0  0  0  0  0  0  0  0  0  0  0  0
    4.2579   27.8188    9.8118 C   0  0  0  0  0  0  0  0  0  0  0  0
    4.6519   29.0118    9.0022 C   0  0  0  0  0  0  0  0  0  0  0  0
    4.7530   22.6182   12.9826 C   0  0  0  0  0  0  0  0  0  0  0  0
    4.9458   28.8090    7.4504 C   0  0  0  0  0  0  0  0  0  0  0  0
    5.8105   21.8830   13.7488 C   0  0  0  0  0  0  0  0  0  0  0  0
    7.5894   20.2904   13.0538 C   0  0  0  0  0  0  0  0  0  0  0  0
    2.0871   23.9492   11.0180 O   0  0  0  0  0  0  0  0  0  0  0  0
    3.7456   22.2467    7.3321 O   0  0  0  0  0  0  0  0  0  0  0  0
    3.9605   21.9772   12.3183 O   0  0  0  0  0  0  0  0  0  0  0  0
    4.5612   23.8972   13.0664 O   0  0  0  0  0  0  0  0  0  0  0  0
    2.6250   23.5630    8.8153 N   0  0  0  0  0  0  0  0  0  0  0  0
    3.1674   25.8839   11.3800 N   0  0  0  0  0  0  0  0  0  0  0  0
    6.1691   20.6413   12.9652 N   0  0  0  0  0  0  0  0  0  0  0  0
    3.7055   24.9207   17.9054 F   0  0  0  0  0  0  0  0  0  0  0  0
  1  9  2  0
  1 19  1  0
  1 23  1  0
  2  5  1  0
  2 19  1  0
  2 24  1  6
  3  4  2  0
  3  6  1  0
  4  7  1  0
  5  6  1  0
  5 22  1  6
  6  8  2  0
  7 10  2  0
  8 10  1  0
  9 12  1  0
  9 24  1  0
 10 26  1  0
 11 20  1  0
 11 23  1  0
 12 13  1  0
 13 14  2  3
 14 16  1  0
 15 17  1  0
 15 21  2  0
 15 22  1  0
 17 25  1  0
 18 25  1  0
M  END
$$$$

     RDKit          3D

 17 19  0  0  0  0  0  0  0  0999 V2000
    2.3623   26.9976   15.5053 C   0  0  0  0  0  0  0  0  0  0  0  0
    2.6165   25.5164   13.5490 C   0  0  0  0  0  0  0  0  0  0  0  0
    2.5873   25.6996   14.9788 C   0  0  0  0  0  0  0  0  0  0  0  0
    3.0898   23.5671   10.6493 C   0  0  0  0  0  0  0  0  0  0  0  0
    2.9159   24.5140   11.6527 C   0  0  0  0  0  0  0  0  0  0  0  0
    2.9913   24.6744   15.8393 C   0  0  0  0  0  0  0  0  0  0  0  0
    3.1616   25.0196   17.2059 C   0  0  0  0  0  0  0  0  0  0  0  0
    3.0988   25.8628   11.4303 C   0  0  0  0  0  0  0  0  0  0  0  0
    2.9959   27.3215   16.6502 C   0  0  0  0  0  0  0  0  0  0  0  0
    3.4834   23.9632    9.4193 C   0  0  0  0  0  0  0  0  0  0  0  0
    3.5458   26.2735   10.1553 C   0  0  0  0  0  0  0  0  0  0  0  0
    3.6795   22.8708    8.4111 C   0  0  0  0  0  0  0  0  0  0  0  0
    3.6968   25.3157    9.1415 C   0  0  0  0  0  0  0  0  0  0  0  0
    2.5933   24.3040   12.9517 N   0  0  0  0  0  0  0  0  0  0  0  0
    2.8379   26.4785   12.6531 N   0  0  0  0  0  0  0  0  0  0  0  0
    3.1476   23.1325    7.1007 N   0  0  0  0  0  0  0  0  0  0  0  0
    3.0481   26.3343   17.5254 N   0  0  0  0  0  0  0  0  0  0  0  0
  1  3  1  0
  1  9  1  0
  2  3  1  0
  2 14  2  0
  2 15  1  0
  3  6  2  0
  4  5  2  0
  4 10  1  0
  5  8  1  0
  5 14  1  0
  6  7  1  0
  7 17  2  0
  8 11  2  0
  8 15  1  0
  9 17  1  0
 10 12  1  0
 10 13  2  0
 11 13  1  0
 12 16  1  0
M  END
$$$$

     RDKit          3D

 25 28  0  0  0  0  0  0  0  0999 V2000
    1.8382   25.5554   13.6556 C   0  0  0  0  0  0  0  0  0  0  0  0
    1.7517   26.2530   14.8433 C   0  0  0  0  0  0  0  0  0  0  0  0
    2.6592   24.3860   13.6004 C   0  0  0  0  0  0  0  0  0  0  0  0
    2.4737   25.8646   15.9876 C   0  0  0  0  0  0  0  0  0  0  0  0
    2.8786   23.9761   11.2600 C   0  0  2  0  0  0  0  0  0  0  0  0
    3.3070   24.7524   15.8923 C   0  0  0  0  0  0  0  0  0  0  0  0
    3.2286   25.3248   10.7479 C   0  0  0  0  0  0  0  0  0  0  0  0
    3.2172   26.6462   11.1913 C   0  0  0  0  0  0  0  0  0  0  0  0
    3.4218   24.0480   14.7010 C   0  0  0  0  0  0  0  0  0  0  0  0
    3.7399   24.9764    9.5447 C   0  0  0  0  0  0  0  0  0  0  0  0
    3.7496   27.6390   10.3666 C   0  0  0  0  0  0  0  0  0  0  0  0
    4.2279   25.9496    8.7370 C   0  0  0  0  0  0  0  0  0  0  0  0
    4.2233   27.2805    9.1017 C   0  0  0  0  0  0  0  0  0  0  0  0
    4.4259   22.9466   14.6024 C   0  0  0  0  0  0  0  0  0  0  0  0
    5.6821   23.3299   13.8574 C   0  0  0  0  0  0  0  0  0  0  0  0
    5.9154   25.8902   14.1399 C   0  0  0  0  0  0  0  0  0  0  0  0
    6.4209   24.5843   14.3237 C   0  0  0  0  0  0  0  0  0  0  0  0
    6.6304   27.0164   14.5498 C   0  0  0  0  0  0  0  0  0  0  0  0
    7.6955   24.4621   14.8809 C   0  0  0  0  0  0  0  0  0  0  0  0
    7.9155   26.8430   15.1138 C   0  0  0  0  0  0  0  0  0  0  0  0
    8.4326   25.5697   15.2302 C   0  0  0  0  0  0  0  0  0  0  0  0
    2.6586   23.5650   12.4722 O   0  0  0  0  0  0  0  0  0  0  0  0
    3.6890   23.6579    9.1234 O   0  0  0  0  0  0  0  0  0  0  0  0
    4.2667   21.8605   14.9035 O   0  0  0  0  0  0  0  0  0  0  0  0
    3.3279   22.8934   10.3268 N   0  0  0  0  0  0  0  0  0  0  0  0
  1  2  2  0
  1  3  1  0
  2  4  1  0
  3  9  1  0
  3 22  1  0
  4  6  1  0
  5  7  1  0
  5 22  1  1
  5 25  1  0
  6  9  2  0
  7  8  2  0
  7 10  1  0
  8 11  1  0
  9 14  1  0
 10 12  2  0
 10 23  1  0
 11 13  2  0
 12 13  1  0
 14 15  1  0
 14 24  2  0
 15 17  1  0
 16 17  2  0
 16 18  1  0
 17 19  1  0
 18 20  2  0
 19 21  2  0
 20 21  1  0
 23 25  1  0
M  END
$$$$

     RDKit          3D

 12 13  0  0  0  0  0  0  0  0999 V2000
    2.4005   24.2142   11.7651 C   0  0  0  0  0  0  0  0  0  0  0  0
    2.2115   25.4379   15.2934 C   0  0  0  0  0  0  0  0  0  0  0  0
    2.4547   23.9318    9.1660 C   0  0  0  0  0  0  0  0  0  0  0  0
    2.6123   24.7492   10.4682 C   0  0  0  0  0  0  0  0  0  0  0  0
    2.4862   25.0334   12.9235 C   0  0  0  0  0  0  0  0  0  0  0  0
    2.5060   26.8050   15.1427 C   0  0  0  0  0  0  0  0  0  0  0  0
    2.9020   26.1296   10.3639 C   0  0  0  0  0  0  0  0  0  0  0  0
    2.8255   26.3781   12.7914 C   0  0  0  0  0  0  0  0  0  0  0  0
    3.0393   26.8988   11.5006 C   0  0  0  0  0  0  0  0  0  0  0  0
    2.9129   27.2134   13.8885 C   0  0  0  0  0  0  0  0  0  0  0  0
    2.2353   24.5129   14.1826 N   0  0  0  0  0  0  0  0  0  0  0  0
    3.4541   22.8959    9.0450 N   0  0  0  0  0  0  0  0  0  0  0  0
  1  4  2  0
  1  5  1  0
  2  6  1  0
  2 11  2  0
  3  4  1  0
  3 12  1  0
  4  7  1  0
  5  8  2  0
  5 11  1  0
  6 10  2  0
  7  9  2  0
  8  9  1  0
  8 10  1  0
M  END
$$$$

     RDKit          3D

 12 13  0  0  0  0  0  0  0  0999 V2000
    2.6773   24.9253    9.1277 C   0  0  0  0  0  0  0  0  0  0  0  0
    2.6752   25.4870   10.4248 C   0  0  0  0  0  0  0  0  0  0  0  0
    2.6797   26.6903   13.0709 C   0  0  0  0  0  0  0  0  0  0  0  0
    2.7057   27.2466   14.3189 C   0  0  0  0  0  0  0  0  0  0  0  0
    3.1143   24.7920   11.5261 C   0  0  0  0  0  0  0  0  0  0  0  0
    3.0106   25.3589   12.8751 C   0  0  0  0  0  0  0  0  0  0  0  0
    3.0314   26.4937   15.4038 C   0  0  0  0  0  0  0  0  0  0  0  0
    3.2200   23.6487    8.9774 C   0  0  0  0  0  0  0  0  0  0  0  0
    3.2655   24.5950   14.0153 C   0  0  0  0  0  0  0  0  0  0  0  0
    3.3140   25.1326   15.2628 C   0  0  0  0  0  0  0  0  0  0  0  0
    3.7417   22.9529   10.0532 C   0  0  0  0  0  0  0  0  0  0  0  0
    3.6692   23.5304   11.3233 C   0  0  0  0  0  0  0  0  0  0  0  0
  1  2  2  0
  1  8  1  0
  2  5  1  0
  3  4  2  0
  3  6  1  0
  4  7  1  0
  5  6  1  0
  5 12  2  0
  6  9  2  0
  7 10  2  0
  8 11  2  0
  9 10  1  0
 11 12  1  0
M  END
$$$$

     RDKit          3D

 13 14  0  0  0  0  0  0  0  0999 V2000
    2.5305   23.4365    9.1239 C   0  0  0  0  0  0  0  0  0  0  0  0
    2.5221   26.2838   13.1160 C   0  0  0  0  0  0  0  0  0  0  0  0
    2.7223   23.8861   10.5331 C   0  0  0  0  0  0  0  0  0  0  0  0
    2.6856   25.2205   12.2558 C   0  0  0  0  0  0  0  0  0  0  0  0
    2.7015   26.1026   14.4770 C   0  0  0  0  0  0  0  0  0  0  0  0
    3.1383   23.9847   12.7430 C   0  0  0  0  0  0  0  0  0  0  0  0
    3.1014   24.8204   14.8878 C   0  0  0  0  0  0  0  0  0  0  0  0
    3.1744   23.1016   11.6076 C   0  0  0  0  0  0  0  0  0  0  0  0
    1.3100   23.2536    8.8566 O   0  0  0  0  0  0  0  0  0  0  0  0
    2.4994   27.1340   15.3030 O   0  0  0  0  0  0  0  0  0  0  0  0
    2.4520   25.1416   10.9183 N   0  0  0  0  0  0  0  0  0  0  0  0
    3.3233   23.7979   14.0827 N   0  0  0  0  0  0  0  0  0  0  0  0
    3.6105   22.8025    8.5352 N   0  0  0  0  0  0  0  0  0  0  0  0
  1  3  1  0
  1  9  2  0
  1 13  1  0
  2  4  2  0
  2  5  1  0
  3  8  1  0
  3 11  1  0
  4  6  1  0
  4 11  1  0
  5  7  2  0
  5 10  1  0
  6  8  1  0
  6 12  2  0
  7 12  1  0
M  END
$$$$

     RDKit          3D

 13 14  0  0  0  0  0  0  0  0999 V2000
    2.3889   24.0175    9.2660 C   0  0  0  0  0  0  0  0  0  0  0  0
    2.2317   24.6215   10.5011 C   0  0  0  0  0  0  0  0  0  0  0  0
    2.3080   24.8893   15.1449 C   0  0  0  0  0  0  0  0  0  0  0  0
    2.1739   26.2629   15.2130 C   0  0  0  0  0  0  0  0  0  0  0  0
    2.3972   27.0860   14.1191 C   0  0  0  0  0  0  0  0  0  0  0  0
    2.6864   24.3464   13.9456 C   0  0  0  0  0  0  0  0  0  0  0  0
    2.9104   25.0826   12.7991 C   0  0  0  0  0  0  0  0  0  0  0  0
    2.7802   26.4741   12.8827 C   0  0  0  0  0  0  0  0  0  0  0  0
    3.1897   24.4728   11.5061 C   0  0  0  0  0  0  0  0  0  0  0  0
    3.4686   23.1896    9.0084 C   0  0  0  0  0  0  0  0  0  0  0  0
    4.3278   23.6941   11.2435 C   0  0  0  0  0  0  0  0  0  0  0  0
    4.4704   23.0934    9.9751 C   0  0  0  0  0  0  0  0  0  0  0  0
    3.4717   22.3785    7.7884 O   0  0  0  0  0  0  0  0  0  0  0  0
  1  2  2  0
  1 10  1  0
  2  9  1  0
  3  4  2  0
  3  6  1  0
  4  5  1  0
  5  8  2  0
  6  7  2  0
  7  8  1  0
  7  9  1  0
  9 11  2  0
 10 12  2  0
 10 13  1  0
 11 12  1  0
M  END
$$$$

     RDKit          3D

 11 11  0  0  0  0  0  0  0  0999 V2000
    1.8904   25.3978   14.9880 C   0  0  0  0  0  0  0  0  0  0  0  0
    2.9029   24.1483   11.7155 C   0  0  0  0  0  0  0  0  0  0  0  0
    2.8091   24.7236   14.1218 C   0  0  1  0  0  0  0  0  0  0  0  0
    3.0803   24.5019   10.3941 C   0  0  0  0  0  0  0  0  0  0  0  0
    2.9530   25.1005   12.7230 C   0  0  0  0  0  0  0  0  0  0  0  0
    3.2779   25.8449   10.0831 C   0  0  0  0  0  0  0  0  0  0  0  0
    3.1621   26.4248   12.3885 C   0  0  0  0  0  0  0  0  0  0  0  0
    3.3371   26.8091   11.0786 C   0  0  0  0  0  0  0  0  0  0  0  0
    3.7838   23.8819   14.6905 C   0  0  0  0  0  0  0  0  0  0  0  0
    4.0908   22.6492   14.7663 N   0  0  0  0  0  0  0  0  0  0  0  0
    3.0826   23.3091    9.1440 Cl  0  0  0  0  0  0  0  0  0  0  0  0
  3  1  1  1
  2  4  2  0
  2  5  1  0
  3  5  1  0
  3  9  1  0
  4  6  1  0
  4 11  1  0
  5  7  2  0
  6  8  2  0
  7  8  1  0
  9 10  2  0
M  END
$$$$

     RDKit          3D

 11 11  0  0  0  0  0  0  0  0999 V2000
    1.8954   25.6883   15.0830 C   0  0  0  0  0  0  0  0  0  0  0  0
    2.3359   23.8449    9.3271 C   0  0  0  0  0  0  0  0  0  0  0  0
    2.3595   24.3082   11.7352 C   0  0  0  0  0  0  0  0  0  0  0  0
    2.4335   25.2243   12.8781 C   0  0  0  0  0  0  0  0  0  0  0  0
    2.4387   26.9483   14.9585 C   0  0  0  0  0  0  0  0  0  0  0  0
    3.0477   26.4550   12.7273 C   0  0  0  0  0  0  0  0  0  0  0  0
    3.0712   27.2399   13.8325 C   0  0  0  0  0  0  0  0  0  0  0  0
    3.5067   23.1015    8.9512 C   0  0  0  0  0  0  0  0  0  0  0  0
    4.5536   23.0347    9.9464 C   0  0  0  0  0  0  0  0  0  0  0  0
    1.8838   24.8758   14.0426 N   0  0  0  0  0  0  0  0  0  0  0  0
    2.3393   24.7427   10.3485 N   0  0  0  0  0  0  0  0  0  0  0  0
  1  5  2  0
  1 10  1  0
  2  8  1  0
  2 11  1  0
  3  4  1  0
  3 11  2  3
  4  6  1  0
  4 10  2  0
  5  7  1  0
  6  7  2  0
  8  9  1  0
M  END
$$$$

     RDKit          3D

 14 15  0  0  0  0  0  0  0  0999 V2000
    2.1880   26.5071   14.3471 C   0  0  0  0  0  0  0  0  0  0  0  0
    2.6155   25.1967   14.3935 C   0  0  0  0  0  0  0  0  0  0  0  0
    2.4125   27.2968   15.4235 C   0  0  0  0  0  0  0  0  0  0  0  0
    2.7417   24.1091    9.7885 C   0  0  0  0  0  0  0  0  0  0  0  0
    2.7038   24.7399   12.0050 C   0  0  0  0  0  0  0  0  0  0  0  0
    2.9803   25.4321    9.4790 C   0  0  0  0  0  0  0  0  0  0  0  0
    3.0454   26.8884   16.5184 C   0  0  0  0  0  0  0  0  0  0  0  0
    3.1670   24.6917   15.5794 C   0  0  0  0  0  0  0  0  0  0  0  0
    3.3999   25.5705   16.6250 C   0  0  0  0  0  0  0  0  0  0  0  0
    2.6115   23.7648   11.0694 N   0  0  0  0  0  0  0  0  0  0  0  0
    2.5245   24.3713   13.3029 N   0  0  0  0  0  0  0  0  0  0  0  0
    2.6715   23.1538    8.8506 N   0  0  0  0  0  0  0  0  0  0  0  0
    3.0119   25.9999   11.6451 N   0  0  0  0  0  0  0  0  0  0  0  0
    3.1714   26.3233   10.4074 N   0  0  0  0  0  0  0  0  0  0  0  0
  1  2  2  0
  1  3  1  0
  2  8  1  0
  2 11  1  0
  3  7  2  0
  4  6  1  0
  4 10  1  0
  4 12  2  0
  5 10  1  0
  5 11  1  0
  5 13  2  0
  6 14  2  0
  7  9  1  0
  8  9  2  0
 13 14  1  0
M  END
$$$$

     RDKit          3D

 16 18  0  0  0  0  0  0  0  0999 V2000
    2.3773   23.7710   10.4043 C   0  0  0  0  0  0  0  0  0  0  0  0
    2.6543   24.2417    9.1692 C   0  0  0  0  0  0  0  0  0  0  0  0
    2.7099   24.5935   11.4667 C   0  0  0  0  0  0  0  0  0  0  0  0
    3.1024   25.5103   13.3776 C   0  0  0  0  0  0  0  0  0  0  0  0
    3.0383   27.0048   15.3773 C   0  0  0  0  0  0  0  0  0  0  0  0
    3.0870   27.1666   16.7443 C   0  0  0  0  0  0  0  0  0  0  0  0
    3.3809   24.6770   15.6909 C   0  0  0  0  0  0  0  0  0  0  0  0
    3.4008   24.9061   17.0733 C   0  0  0  0  0  0  0  0  0  0  0  0
    3.2282   25.4523    8.9038 C   0  0  0  0  0  0  0  0  0  0  0  0
    3.2804   25.8350   11.2497 C   0  0  0  0  0  0  0  0  0  0  0  0
    3.1729   25.7481   14.8304 C   0  0  0  0  0  0  0  0  0  0  0  0
    3.5530   26.2939    9.9424 C   0  0  0  0  0  0  0  0  0  0  0  0
    4.0995   27.7269    9.7851 C   0  0  0  0  0  0  0  0  0  0  0  0
    3.4881   26.3990   12.4731 O   0  0  0  0  0  0  0  0  0  0  0  0
    2.6413   24.3908   12.8210 N   0  0  0  0  0  0  0  0  0  0  0  0
    3.2381   26.1045   17.5623 N   0  0  0  0  0  0  0  0  0  0  0  0
  1  2  2  0
  1  3  1  0
  2  9  1  0
  3 10  2  0
  3 15  1  0
  4 11  1  0
  4 14  1  0
  4 15  1  0
  5  6  2  0
  5 11  1  0
  6 16  1  0
  7  8  1  0
  7 11  2  0
  8 16  2  0
  9 12  2  0
 10 12  1  0
 10 14  1  0
 12 13  1  0
M  END
$$$$

     RDKit          3D

 25 26  0  0  0  0  0  0  0  0999 V2000
    0.7542   26.6657   14.8127 C   0  0  0  0  0  0  0  0  0  0  0  0
    1.5774   25.4124   15.0096 C   0  0  0  0  0  0  0  0  0  0  0  0
    2.0612   24.0639    8.2461 C   0  0  0  0  0  0  0  0  0  0  0  0
    2.2187   24.7361   13.9111 C   0  0  2  0  0  0  0  0  0  0  0  0
    3.0564   24.9983   11.6554 C   0  0  0  0  0  0  0  0  0  0  0  0
    3.3789   26.0047   10.6278 C   0  0  0  0  0  0  0  0  0  0  0  0
    3.4229   24.2949    8.6885 C   0  0  0  0  0  0  0  0  0  0  0  0
    3.5629   24.1988   14.4996 C   0  0  0  0  0  0  0  0  0  0  0  0
    3.6267   25.7003    9.2476 C   0  0  0  0  0  0  0  0  0  0  0  0
    3.4912   27.3284   11.0571 C   0  0  0  0  0  0  0  0  0  0  0  0
    4.1352   26.6938    8.3705 C   0  0  0  0  0  0  0  0  0  0  0  0
    3.9541   28.2612   10.1974 C   0  0  0  0  0  0  0  0  0  0  0  0
    4.2689   27.9851    8.8803 C   0  0  0  0  0  0  0  0  0  0  0  0
    5.0216   24.3316   14.0731 C   0  0  0  0  0  0  0  0  0  0  0  0
    5.7223   26.8231   14.2280 C   0  0  0  0  0  0  0  0  0  0  0  0
    5.9969   25.4492   14.3468 C   0  0  0  0  0  0  0  0  0  0  0  0
    6.6935   27.7450   14.6471 C   0  0  0  0  0  0  0  0  0  0  0  0
    7.9105   27.2661   15.2026 C   0  0  0  0  0  0  0  0  0  0  0  0
    8.1516   25.8725   15.2485 C   0  0  0  0  0  0  0  0  0  0  0  0
    1.0590   23.6002    8.9218 O   0  0  0  0  0  0  0  0  0  0  0  0
    2.9881   23.8542   11.4852 O   0  0  0  0  0  0  0  0  0  0  0  0
    5.5383   23.3243   13.6226 O   0  0  0  0  0  0  0  0  0  0  0  0
    2.5810   25.4637   12.8264 N   0  0  0  0  0  0  0  0  0  0  0  0
    3.5644   24.4345   15.7877 N   0  0  0  0  0  0  0  0  0  0  0  0
    7.1856   25.0168   14.8001 N   0  0  0  0  0  0  0  0  0  0  0  0
  1  2  1  0
  4  2  1  1
  3  7  1  0
  3 20  1  0
  4  8  1  0
  4 23  1  0
  5  6  1  0
  5 21  2  0
  5 23  1  0
  6  9  2  0
  6 10  1  0
  7  9  1  0
  8 14  1  0
  8 24  2  0
  9 11  1  0
 10 12  2  0
 11 13  2  0
 12 13  1  0
 14 16  1  0
 14 22  2  0
 15 16  2  0
 15 17  1  0
 16 25  1  0
 17 18  2  0
 18 19  1  0
 19 25  2  0
M  END
$$$$

     RDKit          3D

 13 14  0  0  0  0  0  0  0  0999 V2000
    2.3732   24.1041    9.4320 C   0  0  0  0  0  0  0  0  0  0  0  0
    2.2037   24.7866   14.2159 C   0  0  0  0  0  0  0  0  0  0  0  0
    2.1815   25.6839   15.2934 C   0  0  0  0  0  0  0  0  0  0  0  0
    2.4356   24.3874   11.8181 C   0  0  0  0  0  0  0  0  0  0  0  0
    2.6309   24.9106   10.5836 C   0  0  0  0  0  0  0  0  0  0  0  0
    2.5548   25.1948   12.9301 C   0  0  0  0  0  0  0  0  0  0  0  0
    2.6278   26.9371   15.1133 C   0  0  0  0  0  0  0  0  0  0  0  0
    3.1080   26.2010   10.4050 C   0  0  0  0  0  0  0  0  0  0  0  0
    2.9642   26.5315   12.7138 C   0  0  0  0  0  0  0  0  0  0  0  0
    3.0192   27.3357   13.8893 C   0  0  0  0  0  0  0  0  0  0  0  0
    3.3102   26.9657   11.4617 C   0  0  0  0  0  0  0  0  0  0  0  0
    3.2179   23.3635    9.0382 O   0  0  0  0  0  0  0  0  0  0  0  0
    1.2154   24.0328    8.9370 F   0  0  0  0  0  0  0  0  0  0  0  0
  1  5  1  0
  1 12  2  0
  1 13  1  0
  2  3  2  0
  2  6  1  0
  3  7  1  0
  4  5  1  0
  4  6  2  0
  5  8  2  0
  6  9  1  0
  7 10  2  0
  8 11  1  0
  9 10  1  0
  9 11  2  0
M  END
$$$$

     RDKit          3D

 12 13  0  0  0  0  0  0  0  0999 V2000
    2.1688   24.4954   14.5192 C   0  0  0  0  0  0  0  0  0  0  0  0
    2.1957   25.4935   15.4678 C   0  0  0  0  0  0  0  0  0  0  0  0
    2.4613   24.8557   13.1884 C   0  0  0  0  0  0  0  0  0  0  0  0
    2.4766   26.8286   15.1686 C   0  0  0  0  0  0  0  0  0  0  0  0
    2.8925   23.7751   10.9297 C   0  0  1  0  0  0  0  0  0  0  0  0
    2.6660   26.1667   12.8531 C   0  0  0  0  0  0  0  0  0  0  0  0
    2.7119   27.1294   13.8590 C   0  0  0  0  0  0  0  0  0  0  0  0
    4.2373   23.3829    9.1033 C   0  0  0  0  0  0  0  0  0  0  0  0
    4.2266   23.5041   10.5074 C   0  0  0  0  0  0  0  0  0  0  0  0
    2.1519   23.7972    9.8537 O   0  0  0  0  0  0  0  0  0  0  0  0
    2.4075   23.8128   12.2489 N   0  0  0  0  0  0  0  0  0  0  0  0
    2.8787   23.6022    8.6592 N   0  0  0  0  0  0  0  0  0  0  0  0
  1  2  2  0
  1  3  1  0
  2  4  1  0
  3  6  2  0
  3 11  1  0
  4  7  2  0
  5  9  1  0
  5 10  1  0
  5 11  1  1
  6  7  1  0
  8  9  1  0
  8 12  1  0
 10 12  1  0
M  END
$$$$

     RDKit          3D

 22 23  0  0  0  0  0  0  0  0999 V2000
    2.2635   26.9755   13.4965 C   0  0  0  0  0  0  0  0  0  0  0  0
    2.4045   27.2051   15.9606 C   0  0  0  0  0  0  0  0  0  0  0  0
    2.9035   25.0879   11.9589 C   0  0  0  0  0  0  0  0  0  0  0  0
    2.8259   26.4691   12.2054 C   0  0  0  0  0  0  0  0  0  0  0  0
    3.4053   24.6011   10.7471 C   0  0  0  0  0  0  0  0  0  0  0  0
    3.2426   27.3507   11.2310 C   0  0  0  0  0  0  0  0  0  0  0  0
    3.6371   23.1439   10.5200 C   0  0  1  0  0  0  0  0  0  0  0  0
    3.6623   26.8767    9.9884 C   0  0  0  0  0  0  0  0  0  0  0  0
    3.7337   25.5039    9.7369 C   0  0  0  0  0  0  0  0  0  0  0  0
    4.3149   23.1139   14.0370 C   0  0  0  0  0  0  0  0  0  0  0  0
    4.6259   21.6173   12.0101 C   0  0  0  0  0  0  0  0  0  0  0  0
    4.6519   24.2009   14.7977 C   0  0  0  0  0  0  0  0  0  0  0  0
    5.1394   22.6505   12.9953 C   0  0  0  0  0  0  0  0  0  0  0  0
    5.7829   24.9106   14.4812 C   0  0  0  0  0  0  0  0  0  0  0  0
    6.3480   23.3618   12.7545 C   0  0  0  0  0  0  0  0  0  0  0  0
    6.6420   24.4837   13.5105 C   0  0  0  0  0  0  0  0  0  0  0  0
    3.4176   22.2696   11.4394 O   0  0  0  0  0  0  0  0  0  0  0  0
    3.6269   22.7700    9.2815 O   0  0  0  0  0  0  0  0  0  0  0  0
    1.3663   28.0413   16.0345 N   0  0  0  0  0  0  0  0  0  0  0  0
    2.7951   26.6345   14.7577 N   0  0  0  0  0  0  0  0  0  0  0  0
    3.1160   26.9689   17.0603 N   0  0  0  0  0  0  0  0  0  0  0  0
    4.1566   22.6540    9.3725 N   0  0  0  0  0  0  0  0  0  0  0  0
  1  4  1  0
  1 20  1  0
  2 19  1  0
  2 20  2  3
  2 21  1  0
  3  4  2  0
  3  5  1  0
  4  6  1  0
  5  7  1  0
  5  9  2  0
  6  8  2  0
  7 17  1  1
  7 18  1  0
  8  9  1  0
 10 12  2  0
 10 13  1  0
 11 13  1  0
 11 17  1  0
 12 14  1  0
 13 15  2  0
 14 16  2  0
 15 16  1  0
 18 22  1  0
M  END
$$$$

     RDKit          3D

 14 15  0  0  0  0  0  0  0  0999 V2000
    2.6436   25.6407   14.8990 C   0  0  0  0  0  0  0  0  0  0  0  0
    2.8595   25.2442   16.2380 C   0  0  0  0  0  0  0  0  0  0  0  0
    3.1088   24.6172   10.1622 C   0  0  0  0  0  0  0  0  0  0  0  0
    3.1302   25.9906    9.7935 C   0  0  0  0  0  0  0  0  0  0  0  0
    3.2087   24.2526   11.5126 C   0  0  0  0  0  0  0  0  0  0  0  0
    3.3134   25.3628   12.5068 C   0  0  0  0  0  0  0  0  0  0  0  0
    3.4029   26.6839   12.0550 C   0  0  0  0  0  0  0  0  0  0  0  0
    3.2985   27.0205   10.7003 C   0  0  0  0  0  0  0  0  0  0  0  0
    3.4427   25.0298   13.9200 C   0  0  0  0  0  0  0  0  0  0  0  0
    3.9001   24.4190   16.6102 C   0  0  0  0  0  0  0  0  0  0  0  0
    4.4847   24.1612   14.2759 C   0  0  0  0  0  0  0  0  0  0  0  0
    4.6934   23.8192   15.6089 C   0  0  0  0  0  0  0  0  0  0  0  0
    2.9982   23.6828    9.1938 O   0  0  0  0  0  0  0  0  0  0  0  0
    3.2727   22.8819   11.8294 O   0  0  0  0  0  0  0  0  0  0  0  0
  1  2  2  0
  1  9  1  0
  2 10  1  0
  3  4  2  0
  3  5  1  0
  3 13  1  0
  4  8  1  0
  5  6  2  0
  5 14  1  0
  6  7  1  0
  6  9  1  0
  7  8  2  0
  9 11  2  0
 10 12  2  0
 11 12  1  0
M  END
$$$$

     RDKit          3D

 12 13  0  0  0  0  0  0  0  0999 V2000
    2.4026   24.0525   11.3298 C   0  0  0  0  0  0  0  0  0  0  0  0
    2.6156   24.6373   10.0898 C   0  0  0  0  0  0  0  0  0  0  0  0
    2.7004   24.7322   12.5341 C   0  0  0  0  0  0  0  0  0  0  0  0
    2.7923   24.7615   14.9302 C   0  0  0  0  0  0  0  0  0  0  0  0
    3.1503   25.9236   10.0367 C   0  0  0  0  0  0  0  0  0  0  0  0
    3.2399   25.9995   12.4364 C   0  0  0  0  0  0  0  0  0  0  0  0
    3.3417   26.8037   16.2169 C   0  0  0  0  0  0  0  0  0  0  0  0
    3.5378   26.7144   13.7107 C   0  0  0  0  0  0  0  0  0  0  0  0
    2.4287   24.1467   13.7538 N   0  0  0  0  0  0  0  0  0  0  0  0
    3.1364   26.1211   14.9290 N   0  0  0  0  0  0  0  0  0  0  0  0
    3.4861   26.5776   11.2590 N   0  0  0  0  0  0  0  0  0  0  0  0
    2.0951   23.8421    8.6742 Cl  0  0  0  0  0  0  0  0  0  0  0  0
  1  2  2  0
  1  3  1  0
  2  5  1  0
  2 12  1  0
  3  6  1  0
  3  9  2  0
  4  9  1  0
  4 10  1  0
  5 11  1  0
  6  8  1  0
  6 11  2  0
  7 10  1  0
  8 10  1  0
M  END
$$$$

     RDKit          3D

 30 33  0  0  0  0  0  0  0  0999 V2000
    1.6166   27.1161   14.0176 C   0  0  0  0  0  0  0  0  0  0  0  0
    2.0703   23.7728   10.4692 C   0  0  0  0  0  0  0  0  0  0  0  0
    2.2751   26.2850   15.0960 C   0  0  0  0  0  0  0  0  0  0  0  0
    2.4923   24.3815    9.3265 C   0  0  0  0  0  0  0  0  0  0  0  0
    2.5592   24.5445   11.4590 C   0  0  0  0  0  0  0  0  0  0  0  0
    2.9475   25.4780   16.9859 C   0  0  0  0  0  0  0  0  0  0  0  0
    3.3933   24.6463   16.0097 C   0  0  0  0  0  0  0  0  0  0  0  0
    3.2311   25.4826    9.7115 C   0  0  0  0  0  0  0  0  0  0  0  0
    3.4869   24.8634   13.5303 C   0  0  1  0  0  0  0  0  0  0  0  0
    3.9479   26.4257    8.8757 C   0  0  0  0  0  0  0  0  0  0  0  0
    4.1510   27.7767    9.5846 C   0  0  0  0  0  0  0  0  0  0  0  0
    4.7472   24.0227   13.4237 C   0  0  0  0  0  0  0  0  0  0  0  0
    4.9021   28.6676    7.3510 C   0  0  0  0  0  0  0  0  0  0  0  0
    4.9199   28.6897    8.7409 C   0  0  0  0  0  0  0  0  0  0  0  0
    5.7248   29.4891    6.6204 C   0  0  0  0  0  0  0  0  0  0  0  0
    5.7995   29.5800    9.3749 C   0  0  0  0  0  0  0  0  0  0  0  0
    5.9614   24.6928   14.0439 C   0  0  0  0  0  0  0  0  0  0  0  0
    6.0752   26.1079   14.1702 C   0  0  0  0  0  0  0  0  0  0  0  0
    6.6347   30.3353    7.2697 C   0  0  0  0  0  0  0  0  0  0  0  0
    6.6405   30.3508    8.6052 C   0  0  0  0  0  0  0  0  0  0  0  0
    7.0230   23.9059   14.4915 C   0  0  0  0  0  0  0  0  0  0  0  0
    7.2036   26.6795   14.7688 C   0  0  0  0  0  0  0  0  0  0  0  0
    8.1473   24.4860   15.0999 C   0  0  0  0  0  0  0  0  0  0  0  0
    8.2448   25.8729   15.2270 C   0  0  0  0  0  0  0  0  0  0  0  0
    2.0532   23.9955    8.1252 O   0  0  0  0  0  0  0  0  0  0  0  0
    3.2847   25.4484   18.2467 O   0  0  0  0  0  0  0  0  0  0  0  0
    2.3917   24.3218   12.8039 N   0  0  0  0  0  0  0  0  0  0  0  0
    2.2271   26.4755   16.3799 N   0  0  0  0  0  0  0  0  0  0  0  0
    3.0254   25.1746   14.8357 N   0  0  0  0  0  0  0  0  0  0  0  0
    3.2740   25.5544   11.0382 N   0  0  0  0  0  0  0  0  0  0  0  0
  1  3  1  0
  2  4  1  0
  2  5  1  0
  3 28  2  0
  3 29  1  0
  4  8  2  0
  4 25  1  0
  5 27  2  3
  5 30  1  0
  6  7  1  0
  6 26  2  0
  6 28  1  0
  7 29  1  0
  8 10  1  0
  8 30  1  0
  9 12  1  1
  9 27  1  0
  9 29  1  0
 10 11  1  0
 11 14  1  0
 12 17  1  0
 13 14  2  0
 13 15  1  0
 14 16  1  0
 15 19  2  0
 16 20  2  0
 17 18  1  0
 17 21  2  0
 18 22  1  0
 19 20  1  0
 21 23  1  0
 22 24  2  0
 23 24  1  0
M  END
$$$$

     RDKit          3D

  9  9  0  0  0  0  0  0  0  0999 V2000
    2.4881   24.4071   12.2241 C   0  0  0  0  0  0  0  0  0  0  0  0
    2.4176   24.9475   13.5275 C   0  0  0  0  0  0  0  0  0  0  0  0
    2.5402   26.9551   15.1309 C   0  0  0  0  0  0  0  0  0  0  0  0
    2.6730   26.2845   13.7497 C   0  0  0  0  0  0  0  0  0  0  0  0
    2.9989   24.6374    9.7887 C   0  0  0  0  0  0  0  0  0  0  0  0
    2.9135   25.1994   11.1457 C   0  0  0  0  0  0  0  0  0  0  0  0
    3.0555   27.1023   12.6749 C   0  0  0  0  0  0  0  0  0  0  0  0
    3.1752   26.5630   11.4149 C   0  0  0  0  0  0  0  0  0  0  0  0
    1.9151   23.9758    9.4747 O   0  0  0  0  0  0  0  0  0  0  0  0
  1  2  2  0
  1  6  1  0
  2  4  1  0
  3  4  1  0
  4  7  2  0
  5  6  1  0
  5  9  1  0
  6  8  2  0
  7  8  1  0
M  END
$$$$

     RDKit          3D

 18 20  0  0  0  0  0  0  0  0999 V2000
    2.0565   26.2626   13.8698 C   0  0  0  0  0  0  0  0  0  0  0  0
    2.3057   26.9105   15.0842 C   0  0  0  0  0  0  0  0  0  0  0  0
    2.4542   24.9410   13.6744 C   0  0  0  0  0  0  0  0  0  0  0  0
    2.8785   24.1792   11.2125 C   0  0  0  0  0  0  0  0  0  0  0  0
    2.9167   26.1744   16.1533 C   0  0  0  0  0  0  0  0  0  0  0  0
    3.2878   24.8364   15.9391 C   0  0  0  0  0  0  0  0  0  0  0  0
    3.3414   25.3622   10.5419 C   0  0  0  0  0  0  0  0  0  0  0  0
    3.2134   26.6758   11.0222 C   0  0  0  0  0  0  0  0  0  0  0  0
    3.6384   22.7748    9.4331 C   0  0  0  0  0  0  0  0  0  0  0  0
    3.6741   27.7254   10.2700 C   0  0  0  0  0  0  0  0  0  0  0  0
    4.1145   23.8729    8.7534 C   0  0  0  0  0  0  0  0  0  0  0  0
    3.9732   25.1677    9.2839 C   0  0  0  0  0  0  0  0  0  0  0  0
    4.2473   27.4727    9.0445 C   0  0  0  0  0  0  0  0  0  0  0  0
    3.7999   24.0936   16.8574 O   0  0  0  0  0  0  0  0  0  0  0  0
    2.2646   24.1953   12.4630 N   0  0  0  0  0  0  0  0  0  0  0  0
    3.0052   22.9756   10.6271 N   0  0  0  0  0  0  0  0  0  0  0  0
    3.0316   24.2865   14.7151 N   0  0  0  0  0  0  0  0  0  0  0  0
    4.4248   26.2325    8.5535 N   0  0  0  0  0  0  0  0  0  0  0  0
  1  2  2  0
  1  3  1  0
  2  5  1  0
  3 15  1  0
  3 17  2  0
  4  7  1  0
  4 15  1  0
  4 16  2  0
  5  6  1  0
  6 14  2  0
  6 17  1  0
  7  8  2  0
  7 12  1  0
  8 10  1  0
  9 11  2  0
  9 16  1  0
 10 13  2  0
 11 12  1  0
 12 18  2  0
 13 18  1  0
M  END
$$$$

     RDKit          3D

 14 15  0  0  0  0  0  0  0  0999 V2000
    2.1326   24.8070   14.3371 C   0  0  0  0  0  0  0  0  0  0  0  0
    2.1417   25.6697   15.3984 C   0  0  0  0  0  0  0  0  0  0  0  0
    2.3312   24.4119   11.8927 C   0  0  0  0  0  0  0  0  0  0  0  0
    2.5803   24.1102    9.3365 C   0  0  1  0  0  0  0  0  0  0  0  0
    2.5090   25.1960   13.0442 C   0  0  0  0  0  0  0  0  0  0  0  0
    2.6498   26.9252   15.2445 C   0  0  0  0  0  0  0  0  0  0  0  0
    2.7126   24.8635   10.6339 C   0  0  0  0  0  0  0  0  0  0  0  0
    3.0712   26.4762   12.8976 C   0  0  0  0  0  0  0  0  0  0  0  0
    3.1252   27.3403   14.0290 C   0  0  0  0  0  0  0  0  0  0  0  0
    3.3343   26.0493   10.5481 C   0  0  0  0  0  0  0  0  0  0  0  0
    3.5113   26.8664   11.6181 C   0  0  0  0  0  0  0  0  0  0  0  0
    3.3771   22.8699    9.2767 N   0  0  0  0  0  0  0  0  0  0  0  0
    1.2352   23.9348    8.9786 F   0  0  0  0  0  0  0  0  0  0  0  0
    2.6305   27.7328   16.3051 F   0  0  0  0  0  0  0  0  0  0  0  0
  1  2  2  0
  1  5  1  0
  2  6  1  0
  3  5  2  0
  3  7  1  0
  4  7  1  0
  4 12  1  1
  4 13  1  0
  5  8  1  0
  6  9  2  0
  6 14  1  0
  7 10  2  0
  8  9  1  0
  8 11  2  0
 10 11  1  0
M  END
$$$$

     RDKit          3D

 14 16  0  0  0  0  0  0  0  0999 V2000
    2.0157   27.1838   14.4607 C   0  0  0  0  0  0  0  0  0  0  0  0
    2.2704   26.3307   15.4732 C   0  0  0  0  0  0  0  0  0  0  0  0
    2.3332   26.8715   13.1821 C   0  0  0  0  0  0  0  0  0  0  0  0
    2.8683   25.1252   15.2146 C   0  0  0  0  0  0  0  0  0  0  0  0
    2.9140   25.6644   12.8650 C   0  0  0  0  0  0  0  0  0  0  0  0
    2.9848   26.1227   10.4824 C   0  0  0  0  0  0  0  0  0  0  0  0
    3.1904   24.8140   13.8851 C   0  0  0  0  0  0  0  0  0  0  0  0
    3.1953   25.2845   11.5395 C   0  0  0  0  0  0  0  0  0  0  0  0
    3.1893   25.6835    9.2035 C   0  0  0  0  0  0  0  0  0  0  0  0
    3.6403   24.4084    8.9586 C   0  0  0  0  0  0  0  0  0  0  0  0
    3.8841   23.5557    9.9701 C   0  0  0  0  0  0  0  0  0  0  0  0
    3.7911   23.6192   13.6191 C   0  0  0  0  0  0  0  0  0  0  0  0
    3.6845   23.9919   11.2841 C   0  0  0  0  0  0  0  0  0  0  0  0
    4.0275   23.1895   12.3442 C   0  0  0  0  0  0  0  0  0  0  0  0
  1  2  2  0
  1  3  1  0
  2  4  1  0
  3  5  2  0
  4  7  2  0
  5  7  1  0
  5  8  1  0
  6  8  2  0
  6  9  1  0
  7 12  1  0
  8 13  1  0
  9 10  2  0
 10 11  1  0
 11 13  2  0
 12 14  2  0
 13 14  1  0
M  END
$$$$

     RDKit          3D

 12 13  0  0  0  0  0  0  0  0999 V2000
    2.2745   25.1301   11.3506 C   0  0  0  0  0  0  0  0  0  0  0  0
    2.5186   24.1675   10.3838 C   0  0  0  0  0  0  0  0  0  0  0  0
    2.5836   25.8573   13.6638 C   0  0  0  0  0  0  0  0  0  0  0  0
    2.8487   24.9971   12.6177 C   0  0  0  0  0  0  0  0  0  0  0  0
    3.0780   25.6059   14.8942 C   0  0  0  0  0  0  0  0  0  0  0  0
    3.4884   23.2390   10.5804 C   0  0  0  0  0  0  0  0  0  0  0  0
    3.7190   23.9682   12.8463 C   0  0  0  0  0  0  0  0  0  0  0  0
    4.1024   23.0955   11.7961 C   0  0  0  0  0  0  0  0  0  0  0  0
    3.9161   24.5688   15.1270 C   0  0  0  0  0  0  0  0  0  0  0  0
    4.2359   23.8009   14.0967 C   0  0  0  0  0  0  0  0  0  0  0  0
    1.8961   26.9579   13.4104 F   0  0  0  0  0  0  0  0  0  0  0  0
    1.6936   24.1999    8.9107 Cl  0  0  0  0  0  0  0  0  0  0  0  0
  1  2  2  0
  1  4  1  0
  2  6  1  0
  2 12  1  0
  3  4  2  0
  3  5  1  0
  3 11  1  0
  4  7  1  0
  5  9  2  0
  6  8  2  0
  7  8  1  0
  7 10  2  0
  9 10  1  0
M  END
$$$$

     RDKit          3D

 17 19  0  0  0  0  0  0  0  0999 V2000
    3.1606   25.3401   11.4945 C   0  0  2  0  0  0  0  0  0  0  0  0
    3.1812   26.7464   11.5398 C   0  0  0  0  0  0  0  0  0  0  0  0
    3.6065   23.2278   10.1660 C   0  0  0  0  0  0  0  0  0  0  0  0
    3.4747   24.7056   10.2543 C   0  0  2  0  0  0  0  0  0  0  0  0
    3.6199   27.4831   10.4589 C   0  0  0  0  0  0  0  0  0  0  0  0
    3.6883   24.0287   13.5514 C   0  0  2  0  0  0  0  0  0  0  0  0
    3.8891   24.8427   14.7229 C   0  0  0  0  0  0  0  0  0  0  0  0
    3.9269   25.4685    9.1435 C   0  0  0  0  0  0  0  0  0  0  0  0
    3.9552   26.8738    9.2318 C   0  0  0  0  0  0  0  0  0  0  0  0
    4.8803   22.4961   11.8773 C   0  0  0  0  0  0  0  0  0  0  0  0
    4.9369   23.5487   12.9509 C   0  0  0  0  0  0  0  0  0  0  0  0
    5.1443   25.2723   15.1069 C   0  0  0  0  0  0  0  0  0  0  0  0
    6.1805   24.0302   13.3454 C   0  0  0  0  0  0  0  0  0  0  0  0
    6.2693   24.8937   14.4230 C   0  0  0  0  0  0  0  0  0  0  0  0
    2.6599   24.6323   12.5796 O   0  0  0  0  0  0  0  0  0  0  0  0
    3.9410   22.7286    9.0925 O   0  0  0  0  0  0  0  0  0  0  0  0
    3.6350   22.4168   11.2763 N   0  0  0  0  0  0  0  0  0  0  0  0
  1  2  1  0
  1  4  1  0
  1 15  1  6
  2  5  2  0
  3  4  1  0
  3 16  2  0
  3 17  1  0
  4  8  1  1
  5  9  1  0
  6  7  1  1
  6 11  1  0
  6 15  1  0
  7 12  1  0
  8  9  2  0
 10 11  1  0
 10 17  1  0
 11 13  2  0
 12 14  2  0
 13 14  1  0
M  END
$$$$

     RDKit          3D

 13 14  0  0  0  0  0  0  0  0999 V2000
    1.7351   25.2584   15.1672 C   0  0  0  0  0  0  0  0  0  0  0  0
    2.0648   24.3924   10.6225 C   0  0  0  0  0  0  0  0  0  0  0  0
    2.5469   24.0907    9.3676 C   0  0  0  0  0  0  0  0  0  0  0  0
    2.4984   25.1308   13.9886 C   0  0  0  0  0  0  0  0  0  0  0  0
    2.7000   23.9933   11.7675 C   0  0  0  0  0  0  0  0  0  0  0  0
    3.2308   26.7615   16.1087 C   0  0  0  0  0  0  0  0  0  0  0  0
    3.7180   23.3933    9.2618 C   0  0  0  0  0  0  0  0  0  0  0  0
    3.9070   26.7369   14.9017 C   0  0  0  0  0  0  0  0  0  0  0  0
    3.9157   23.3021   11.6382 C   0  0  0  0  0  0  0  0  0  0  0  0
    4.4089   23.0125   10.3793 C   0  0  0  0  0  0  0  0  0  0  0  0
    2.1229   24.1954   13.0336 N   0  0  0  0  0  0  0  0  0  0  0  0
    2.1329   25.9849   16.1683 N   0  0  0  0  0  0  0  0  0  0  0  0
    3.5755   25.8844   13.8999 N   0  0  0  0  0  0  0  0  0  0  0  0
  1  4  2  0
  1 12  1  0
  2  3  2  0
  2  5  1  0
  3  7  1  0
  4 11  1  0
  4 13  1  0
  5  9  2  0
  5 11  1  0
  6  8  1  0
  6 12  2  0
  7 10  2  0
  8 13  2  0
  9 10  1  0
M  END
$$$$

     RDKit          3D

 16 17  0  0  0  0  0  0  0  0999 V2000
    2.7873   25.4363   15.3173 C   0  0  0  0  0  0  0  0  0  0  0  0
    3.0565   24.2428   12.0978 C   0  0  0  0  0  0  0  0  0  0  0  0
    2.9799   24.5764   10.7365 C   0  0  0  0  0  0  0  0  0  0  0  0
    2.9948   25.1414   16.5982 C   0  0  0  0  0  0  0  0  0  0  0  0
    3.3890   25.2297   13.0161 C   0  0  0  0  0  0  0  0  0  0  0  0
    3.2260   25.8809   10.3427 C   0  0  0  0  0  0  0  0  0  0  0  0
    3.6277   26.5456   12.6204 C   0  0  0  0  0  0  0  0  0  0  0  0
    3.5369   26.8818   11.2648 C   0  0  0  0  0  0  0  0  0  0  0  0
    3.7586   22.9612    9.0772 C   0  0  0  0  0  0  0  0  0  0  0  0
    4.0003   24.3264   16.9281 C   0  0  0  0  0  0  0  0  0  0  0  0
    4.5155   24.0417   14.7129 C   0  0  0  0  0  0  0  0  0  0  0  0
    4.7461   23.7862   15.9768 C   0  0  0  0  0  0  0  0  0  0  0  0
    4.9148   23.0377    9.5061 O   0  0  0  0  0  0  0  0  0  0  0  0
    2.7722   23.5724    9.8256 N   0  0  0  0  0  0  0  0  0  0  0  0
    3.3951   22.1884    7.9986 N   0  0  0  0  0  0  0  0  0  0  0  0
    3.5339   24.8934   14.3452 N   0  0  0  0  0  0  0  0  0  0  0  0
  1  4  1  0
  1 16  1  0
  2  3  1  0
  2  5  1  0
  3  6  2  0
  3 14  1  0
  4 10  2  0
  5  7  2  0
  5 16  1  0
  6  8  1  0
  7  8  1  0
  9 13  2  0
  9 14  1  0
  9 15  1  0
 10 12  1  0
 11 12  2  0
 11 16  1  0
M  END
$$$$

     RDKit          3D

 11 12  0  0  0  0  0  0  0  0999 V2000
    2.6111   24.1126   11.2938 C   0  0  0  0  0  0  0  0  0  0  0  0
    2.6587   24.7859   12.5002 C   0  0  0  0  0  0  0  0  0  0  0  0
    2.4273   24.7737   14.7996 C   0  0  0  0  0  0  0  0  0  0  0  0
    2.6269   26.1389   14.8788 C   0  0  0  0  0  0  0  0  0  0  0  0
    2.7167   24.7770   10.0933 C   0  0  0  0  0  0  0  0  0  0  0  0
    2.8902   26.1986   12.4940 C   0  0  0  0  0  0  0  0  0  0  0  0
    2.8719   26.8796   13.7287 C   0  0  0  0  0  0  0  0  0  0  0  0
    2.9728   26.1434   10.1092 C   0  0  0  0  0  0  0  0  0  0  0  0
    3.0444   26.8929   11.2851 C   0  0  0  0  0  0  0  0  0  0  0  0
    2.4907   24.0877   13.6405 N   0  0  0  0  0  0  0  0  0  0  0  0
    2.2305   23.9384    8.6414 Cl  0  0  0  0  0  0  0  0  0  0  0  0
  1  2  2  0
  1  5  1  0
  2  6  1  0
  2 10  1  0
  3  4  1  0
  3 10  2  0
  4  7  2  0
  5  8  2  0
  5 11  1  0
  6  7  1  0
  6  9  2  0
  8  9  1  0
M  END
$$$$

     RDKit          3D

 30 33  0  0  0  0  0  0  0  0999 V2000
    2.4911   24.6051    9.7612 C   0  0  0  0  0  0  0  0  0  0  0  0
    2.4334   26.5354   14.5313 C   0  0  0  0  0  0  0  0  0  0  0  0
    2.5398   27.3246   15.6618 C   0  0  0  0  0  0  0  0  0  0  0  0
    2.8773   24.2745   13.3731 C   0  0  2  0  0  0  0  0  0  0  0  0
    2.8718   24.7545   11.9193 C   0  0  0  0  0  0  0  0  0  0  0  0
    2.8256   25.1816   14.5477 C   0  0  0  0  0  0  0  0  0  0  0  0
    2.9834   26.7335   16.8416 C   0  0  0  0  0  0  0  0  0  0  0  0
    3.2166   24.6040   15.7318 C   0  0  2  0  0  0  0  0  0  0  0  0
    3.3089   25.3726   16.9044 C   0  0  0  0  0  0  0  0  0  0  0  0
    3.3742   25.6909    9.9478 C   0  0  1  0  0  0  0  0  0  0  0  0
    3.9061   26.6663    8.9885 C   0  0  0  0  0  0  0  0  0  0  0  0
    4.3461   27.9474    9.5051 C   0  0  0  0  0  0  0  0  0  0  0  0
    4.7324   22.6618   12.9846 C   0  0  0  0  0  0  0  0  0  0  0  0
    4.8849   29.0932    8.7167 C   0  0  0  0  0  0  0  0  0  0  0  0
    5.4328   28.9288    7.2731 C   0  0  0  0  0  0  0  0  0  0  0  0
    6.0835   25.5101   14.2582 C   0  0  0  0  0  0  0  0  0  0  0  0
    6.1681   22.5277   13.3085 C   0  0  0  0  0  0  0  0  0  0  0  0
    6.3427   26.8403   14.4876 C   0  0  0  0  0  0  0  0  0  0  0  0
    6.2849   30.1263    6.8597 C   0  0  0  0  0  0  0  0  0  0  0  0
    6.5353   23.0358   14.7514 C   0  0  0  0  0  0  0  0  0  0  0  0
    6.9882   24.4917   14.6652 C   0  0  0  0  0  0  0  0  0  0  0  0
    7.5826   27.1983   15.0305 C   0  0  0  0  0  0  0  0  0  0  0  0
    8.2201   24.8952   15.1949 C   0  0  0  0  0  0  0  0  0  0  0  0
    8.5287   26.2307   15.3389 C   0  0  0  0  0  0  0  0  0  0  0  0
    1.9977   24.0229    8.6285 O   0  0  0  0  0  0  0  0  0  0  0  0
    4.0098   23.5582   15.3083 O   0  0  0  0  0  0  0  0  0  0  0  0
    4.7398   28.3694    6.3637 O   0  0  0  0  0  0  0  0  0  0  0  0
    2.1993   24.0864   10.9883 N   0  0  0  0  0  0  0  0  0  0  0  0
    3.6150   25.7194   11.2930 N   0  0  0  0  0  0  0  0  0  0  0  0
    3.8977   23.4175   13.7281 N   0  0  0  0  0  0  0  0  0  0  0  0
  1 10  1  0
  1 25  2  0
  1 28  1  0
  2  3  1  0
  2  6  2  0
  3  7  2  0
  4  5  1  6
  4  6  1  0
  4 30  1  0
  5 28  2  0
  5 29  1  0
  6  8  1  0
  7  9  1  0
  8  9  1  1
  8 26  1  0
 10 11  1  0
 10 29  1  1
 11 12  2  3
 12 14  1  0
 13 17  1  0
 13 30  1  0
 14 15  1  0
 15 19  1  0
 15 27  2  0
 16 18  2  0
 16 21  1  0
 17 20  1  0
 18 22  1  0
 20 21  1  0
 21 23  1  0
 22 24  1  0
 23 24  2  0
 26 30  1  0
M  END
$$$$

     RDKit          3D

 16 18  0  0  0  0  0  0  0  0999 V2000
    2.7282   27.1150   15.3177 C   0  0  0  0  0  0  0  0  0  0  0  0
    2.7786   27.3534   16.6745 C   0  0  0  0  0  0  0  0  0  0  0  0
    3.1297   24.2568   12.7895 C   0  0  0  0  0  0  0  0  0  0  0  0
    3.0325   25.5275   13.3806 C   0  0  1  0  0  0  0  0  0  0  0  0
    3.1574   25.8056   11.1437 C   0  0  0  0  0  0  0  0  0  0  0  0
    3.0139   25.8386   14.8569 C   0  0  0  0  0  0  0  0  0  0  0  0
    3.3322   23.5069   10.3490 C   0  0  0  0  0  0  0  0  0  0  0  0
    3.1975   24.4391   11.3884 C   0  0  0  0  0  0  0  0  0  0  0  0
    3.3558   24.8087   15.7878 C   0  0  0  0  0  0  0  0  0  0  0  0
    3.3970   25.1157   17.1506 C   0  0  0  0  0  0  0  0  0  0  0  0
    3.3309   26.2956    9.8429 C   0  0  0  0  0  0  0  0  0  0  0  0
    3.4551   23.9465    9.0976 C   0  0  0  0  0  0  0  0  0  0  0  0
    3.4406   25.3470    8.8071 C   0  0  0  0  0  0  0  0  0  0  0  0
    3.0200   26.4647   12.3693 O   0  0  0  0  0  0  0  0  0  0  0  0
    3.1284   26.3625   17.5854 N   0  0  0  0  0  0  0  0  0  0  0  0
    3.5528   23.0086    8.0924 N   0  0  0  0  0  0  0  0  0  0  0  0
  1  2  1  0
  1  6  2  0
  2 15  1  0
  3  4  1  0
  3  8  1  0
  4  6  1  1
  4 14  1  0
  5  8  2  0
  5 11  1  0
  5 14  1  0
  6  9  1  0
  7  8  1  0
  7 12  2  0
  9 10  1  0
 10 15  2  0
 11 13  2  0
 12 13  1  0
 12 16  1  0
M  END
$$$$

     RDKit          3D

 12 13  0  0  0  0  0  0  0  0999 V2000
    1.8828   24.1244    8.7487 C   0  0  0  0  0  0  0  0  0  0  0  0
    2.1743   24.7768   14.4601 C   0  0  0  0  0  0  0  0  0  0  0  0
    2.4019   26.8034   15.5565 C   0  0  0  0  0  0  0  0  0  0  0  0
    2.6431   23.9810   10.0704 C   0  0  0  0  0  0  0  0  0  0  0  0
    2.8082   25.2439   13.3413 C   0  0  1  0  0  0  0  0  0  0  0  0
    3.0269   24.4773   12.1335 C   0  0  2  0  0  0  0  0  0  0  0  0
    3.0409   27.3239   14.4506 C   0  0  0  0  0  0  0  0  0  0  0  0
    3.2062   26.5824   13.3272 C   0  0  0  0  0  0  0  0  0  0  0  0
    3.9997   23.5921   11.7609 C   0  0  0  0  0  0  0  0  0  0  0  0
    1.9697   25.4988   15.5434 N   0  0  0  0  0  0  0  0  0  0  0  0
    2.1975   24.6466   11.1018 N   0  0  0  0  0  0  0  0  0  0  0  0
    3.7323   23.2129   10.4382 N   0  0  0  0  0  0  0  0  0  0  0  0
  1  4  1  0
  5  2  1  6
  2 10  2  0
  3  7  1  0
  3 10  1  0
  4 11  2  0
  4 12  1  0
  5  6  1  0
  5  8  1  0
  6  9  1  6
  6 11  1  0
  7  8  2  0
  9 12  1  0
M  END
$$$$

     RDKit          3D

 14 15  0  0  0  0  0  0  0  0999 V2000
    2.2058   26.3467   15.9533 C   0  0  0  0  0  0  0  0  0  0  0  0
    2.2056   27.1961   14.8984 C   0  0  0  0  0  0  0  0  0  0  0  0
    2.5731   25.0090   15.7954 C   0  0  0  0  0  0  0  0  0  0  0  0
    2.5320   26.7845   13.6470 C   0  0  0  0  0  0  0  0  0  0  0  0
    2.8925   24.6106   14.5301 C   0  0  0  0  0  0  0  0  0  0  0  0
    2.8836   25.4796   13.4390 C   0  0  0  0  0  0  0  0  0  0  0  0
    3.2353   25.0180   12.1037 C   0  0  0  0  0  0  0  0  0  0  0  0
    3.3459   25.9179   11.0194 C   0  0  0  0  0  0  0  0  0  0  0  0
    3.4664   23.6479   11.8747 C   0  0  0  0  0  0  0  0  0  0  0  0
    3.8367   23.2274   10.6394 C   0  0  0  0  0  0  0  0  0  0  0  0
    3.6867   25.4240    9.7373 C   0  0  0  0  0  0  0  0  0  0  0  0
    3.9373   24.0221    9.5657 C   0  0  0  0  0  0  0  0  0  0  0  0
    4.3720   23.1633    8.3327 C   0  0  0  0  0  0  0  0  0  0  0  0
    3.3433   22.2120    7.9981 N   0  0  0  0  0  0  0  0  0  0  0  0
  1  2  2  0
  1  3  1  0
  2  4  1  0
  3  5  2  0
  4  6  2  0
  5  6  1  0
  6  7  1  0
  7  8  2  0
  7  9  1  0
  8 11  1  0
  9 10  2  0
 10 12  1  0
 11 12  2  0
 12 13  1  0
 13 14  1  0
M  END
$$$$

     RDKit          3D

 13 13  0  0  0  0  0  0  0  0999 V2000
    2.1219   25.5895   15.8456 C   0  0  0  0  0  0  0  0  0  0  0  0
    2.3539   24.7085   14.7757 C   0  0  0  0  0  0  0  0  0  0  0  0
    2.2047   26.9271   15.6177 C   0  0  0  0  0  0  0  0  0  0  0  0
    2.5839   24.5544   11.1159 C   0  0  0  0  0  0  0  0  0  0  0  0
    2.5145   27.4040   14.3925 C   0  0  0  0  0  0  0  0  0  0  0  0
    2.7059   25.2247   13.5435 C   0  0  0  0  0  0  0  0  0  0  0  0
    2.7258   26.5665   13.3573 C   0  0  0  0  0  0  0  0  0  0  0  0
    3.0877   24.4180   12.3906 C   0  0  0  0  0  0  0  0  0  0  0  0
    3.6456   22.6681    8.1115 C   0  0  0  0  0  0  0  0  0  0  0  0
    4.5385   23.1307   11.3695 C   0  0  0  0  0  0  0  0  0  0  0  0
    2.6994   23.4270    8.7741 N   0  0  0  0  0  0  0  0  0  0  0  0
    4.1112   23.5581   12.4935 N   0  0  0  0  0  0  0  0  0  0  0  0
    3.5616   23.5524   10.1252 S   0  0  0  0  0  0  0  0  0  0  0  0
  1  2  2  0
  1  3  1  0
  2  6  1  0
  3  5  2  0
  4  8  2  0
  5  7  1  0
  6  7  2  0
  6  8  1  0
  8 12  1  0
  9 11  1  0
 10 12  1  0
 10 13  1  0
 11 13  1  0
M  END
$$$$

     RDKit          3D

 19 20  0  0  0  0  0  0  0  0999 V2000
    2.8415   25.4299   11.4748 C   0  0  0  0  0  0  0  0  0  0  0  0
    3.0979   26.7921   11.6224 C   0  0  0  0  0  0  0  0  0  0  0  0
    3.1920   23.3758    9.8150 C   0  0  0  0  0  0  0  0  0  0  0  0
    3.1677   24.8626   10.2042 C   0  0  0  0  0  0  0  0  0  0  0  0
    3.5548   25.6829    9.1597 C   0  0  0  0  0  0  0  0  0  0  0  0
    3.5277   27.5322   10.5214 C   0  0  0  0  0  0  0  0  0  0  0  0
    4.3603   24.6468   14.0697 C   0  0  0  0  0  0  0  0  0  0  0  0
    4.8259   23.5698   13.3262 C   0  0  0  0  0  0  0  0  0  0  0  0
    5.2352   25.4368   14.7555 C   0  0  0  0  0  0  0  0  0  0  0  0
    6.1625   23.2445   13.2683 C   0  0  0  0  0  0  0  0  0  0  0  0
    6.6159   25.1758   14.6463 C   0  0  0  0  0  0  0  0  0  0  0  0
    7.0655   24.1196   13.8956 C   0  0  0  0  0  0  0  0  0  0  0  0
    2.0607   23.9596   14.9631 O   0  0  0  0  0  0  0  0  0  0  0  0
    2.1462   26.2586   14.3883 O   0  0  0  0  0  0  0  0  0  0  0  0
    2.1803   22.9566    9.1712 O   0  0  0  0  0  0  0  0  0  0  0  0
    2.2600   24.6265   12.5360 O   0  0  0  0  0  0  0  0  0  0  0  0
    4.1809   22.6713   10.1092 O   0  0  0  0  0  0  0  0  0  0  0  0
    3.7439   26.9910    9.3365 N   0  0  0  0  0  0  0  0  0  0  0  0
    2.6186   24.9055   14.0446 S   0  0  0  0  0  0  0  0  0  0  0  0
  1  2  2  0
  1  4  1  0
  1 16  1  0
  2  6  1  0
  3  4  1  0
  3 15  2  0
  3 17  1  0
  4  5  2  0
  5 18  1  0
  6 18  2  0
  7  8  2  0
  7  9  1  0
  7 19  1  0
  8 10  1  0
  9 11  2  0
 10 12  2  0
 11 12  1  0
 13 19  1  0
 14 19  1  0
 16 19  1  0
M  END
$$$$

     RDKit          3D

 16 17  0  0  0  0  0  0  0  0999 V2000
    2.2485   24.0519    9.5102 C   0  0  0  0  0  0  0  0  0  0  0  0
    2.1575   24.6884   10.7568 C   0  0  0  0  0  0  0  0  0  0  0  0
    2.6105   27.1259   14.4268 C   0  0  0  0  0  0  0  0  0  0  0  0
    2.6671   26.5259   13.1792 C   0  0  0  0  0  0  0  0  0  0  0  0
    3.0980   25.1865   13.0206 C   0  0  0  0  0  0  0  0  0  0  0  0
    2.9528   26.4319   15.5599 C   0  0  0  0  0  0  0  0  0  0  0  0
    3.3573   23.2571    9.1910 C   0  0  0  0  0  0  0  0  0  0  0  0
    3.1885   24.5392   11.6904 C   0  0  0  0  0  0  0  0  0  0  0  0
    3.3903   25.1151   15.4628 C   0  0  0  0  0  0  0  0  0  0  0  0
    3.4297   24.4883   14.2005 C   0  0  0  0  0  0  0  0  0  0  0  0
    3.7974   24.3878   16.6659 C   0  0  0  0  0  0  0  0  0  0  0  0
    4.3983   23.1439   10.1329 C   0  0  0  0  0  0  0  0  0  0  0  0
    4.3253   23.7881   11.3562 C   0  0  0  0  0  0  0  0  0  0  0  0
    3.3915   22.5907    7.9928 O   0  0  0  0  0  0  0  0  0  0  0  0
    3.3588   24.7671   17.8013 O   0  0  0  0  0  0  0  0  0  0  0  0
    4.6107   23.4377   16.6046 O   0  0  0  0  0  0  0  0  0  0  0  0
  1  2  2  0
  1  7  1  0
  2  8  1  0
  3  4  2  0
  3  6  1  0
  4  5  1  0
  5  8  1  0
  5 10  2  0
  6  9  2  0
  7 12  2  0
  7 14  1  0
  8 13  2  0
  9 10  1  0
  9 11  1  0
 11 15  2  0
 11 16  1  0
 12 13  1  0
M  END
$$$$

     RDKit          3D

 14 15  0  0  0  0  0  0  0  0999 V2000
    2.8368   25.6606   14.8137 C   0  0  0  0  0  0  0  0  0  0  0  0
    3.1367   24.2253   10.2154 C   0  0  0  0  0  0  0  0  0  0  0  0
    2.9544   25.3927   16.1604 C   0  0  0  0  0  0  0  0  0  0  0  0
    3.2354   24.0088   11.6017 C   0  0  0  0  0  0  0  0  0  0  0  0
    3.3787   25.0711   12.4691 C   0  0  0  0  0  0  0  0  0  0  0  0
    3.1900   25.5606    9.7396 C   0  0  0  0  0  0  0  0  0  0  0  0
    3.4074   26.3866   11.9753 C   0  0  0  0  0  0  0  0  0  0  0  0
    3.3225   26.6527   10.6088 C   0  0  0  0  0  0  0  0  0  0  0  0
    3.5001   24.8537   13.8992 C   0  0  0  0  0  0  0  0  0  0  0  0
    3.8920   22.7757    8.4200 C   0  0  0  0  0  0  0  0  0  0  0  0
    3.8097   24.3956   16.5682 C   0  0  0  0  0  0  0  0  0  0  0  0
    4.3214   23.8415   14.3985 C   0  0  0  0  0  0  0  0  0  0  0  0
    3.0196   23.1549    9.4221 O   0  0  0  0  0  0  0  0  0  0  0  0
    4.4493   23.6143   15.7152 N   0  0  0  0  0  0  0  0  0  0  0  0
  1  3  2  0
  1  9  1  0
  2  4  2  0
  2  6  1  0
  2 13  1  0
  3 11  1  0
  4  5  1  0
  5  7  2  0
  5  9  1  0
  6  8  2  0
  7  8  1  0
  9 12  2  0
 10 13  1  0
 11 14  2  0
 12 14  1  0
M  END
$$$$

     RDKit          3D

 12 13  0  0  0  0  0  0  0  0999 V2000
    2.2997   24.4718   13.9613 C   0  0  0  0  0  0  0  0  0  0  0  0
    2.3291   25.2133   15.1764 C   0  0  0  0  0  0  0  0  0  0  0  0
    2.4801   24.3819   11.5288 C   0  0  0  0  0  0  0  0  0  0  0  0
    2.5640   25.1046   12.7370 C   0  0  0  0  0  0  0  0  0  0  0  0
    2.6238   26.5311   15.1126 C   0  0  0  0  0  0  0  0  0  0  0  0
    2.6676   24.4244    8.9847 C   0  0  0  0  0  0  0  0  0  0  0  0
    2.7591   25.0635   10.3212 C   0  0  0  0  0  0  0  0  0  0  0  0
    3.1407   26.3719   10.3753 C   0  0  0  0  0  0  0  0  0  0  0  0
    2.9258   26.4513   12.7397 C   0  0  0  0  0  0  0  0  0  0  0  0
    2.9966   27.1095   13.9328 C   0  0  0  0  0  0  0  0  0  0  0  0
    3.2338   27.0700   11.5355 C   0  0  0  0  0  0  0  0  0  0  0  0
    2.1946   23.1934    8.8087 N   0  0  0  0  0  0  0  0  0  0  0  0
  1  2  2  0
  1  4  1  0
  2  5  1  0
  3  4  2  0
  3  7  1  0
  4  9  1  0
  5 10  2  0
  6  7  1  0
  6 12  2  0
  7  8  2  0
  8 11  1  0
  9 10  1  0
  9 11  2  0
M  END
$$$$

     RDKit          3D

 40 44  0  0  0  0  0  0  0  0999 V2000
    2.5683   26.4321   14.0900 C   0  0  0  0  0  0  0  0  0  0  0  0
    2.5070   27.3593   15.1129 C   0  0  0  0  0  0  0  0  0  0  0  0
    2.6866   25.0333    9.6237 C   0  0  0  0  0  0  0  0  0  0  0  0
    2.7303   26.9317   16.4110 C   0  0  0  0  0  0  0  0  0  0  0  0
    2.9188   24.0831   13.1541 C   0  0  2  0  0  0  0  0  0  0  0  0
    2.9515   24.7463   11.7762 C   0  0  0  0  0  0  0  0  0  0  0  0
    2.9162   25.0870   14.2893 C   0  0  0  0  0  0  0  0  0  0  0  0
    3.0519   25.5843   16.6614 C   0  0  0  0  0  0  0  0  0  0  0  0
    3.1665   24.6587   15.6169 C   0  0  0  0  0  0  0  0  0  0  0  0
    3.4175   26.1361   10.1379 C   0  0  0  0  0  0  0  0  0  0  0  0
    4.1297   23.1212   13.0775 C   0  0  0  0  0  0  0  0  0  0  0  0
    4.8024   28.1543    9.9224 C   0  0  0  0  0  0  0  0  0  0  0  0
    5.3878   28.9742    7.5457 C   0  0  0  0  0  0  0  0  0  0  0  0
    5.4902   29.0958    8.9572 C   0  0  0  0  0  0  0  0  0  0  0  0
    6.1141   27.1465   14.4173 C   0  0  0  0  0  0  0  0  0  0  0  0
    6.1223   29.8406    6.7192 C   0  0  0  0  0  0  0  0  0  0  0  0
    6.2299   25.7995   14.1146 C   0  0  0  0  0  0  0  0  0  0  0  0
    6.5672   22.9206   13.5693 C   0  0  0  0  0  0  0  0  0  0  0  0
    6.4136   29.9997    9.5029 C   0  0  0  0  0  0  0  0  0  0  0  0
    6.8783   21.5813   13.2769 C   0  0  0  0  0  0  0  0  0  0  0  0
    6.9916   30.7455    7.2832 C   0  0  0  0  0  0  0  0  0  0  0  0
    7.1289   30.8385    8.6517 C   0  0  0  0  0  0  0  0  0  0  0  0
    7.3694   25.1118   14.4813 C   0  0  0  0  0  0  0  0  0  0  0  0
    7.1618   27.8167   15.0577 C   0  0  0  0  0  0  0  0  0  0  0  0
    7.5711   23.7041   14.1432 C   0  0  0  0  0  0  0  0  0  0  0  0
    8.1766   21.1020   13.5404 C   0  0  0  0  0  0  0  0  0  0  0  0
    8.4072   25.7741   15.1472 C   0  0  0  0  0  0  0  0  0  0  0  0
    8.3075   27.1373   15.4161 C   0  0  0  0  0  0  0  0  0  0  0  0
    8.6107   19.7095   13.2669 C   0  0  0  0  0  0  0  0  0  0  0  0
    8.8336   23.1862   14.4039 C   0  0  0  0  0  0  0  0  0  0  0  0
    9.1565   21.9027   14.1079 C   0  0  0  0  0  0  0  0  0  0  0  0
    3.9770   22.0019   12.5815 O   0  0  0  0  0  0  0  0  0  0  0  0
    5.0144   28.2665   11.1532 O   0  0  0  0  0  0  0  0  0  0  0  0
    7.7271   18.8519   13.2009 O   0  0  0  0  0  0  0  0  0  0  0  0
    9.8557   19.4968   13.0948 O   0  0  0  0  0  0  0  0  0  0  0  0
    2.4654   24.1981   10.6997 N   0  0  0  0  0  0  0  0  0  0  0  0
    3.4999   25.9300   11.4614 N   0  0  0  0  0  0  0  0  0  0  0  0
    3.9437   27.2113    9.4123 N   0  0  0  0  0  0  0  0  0  0  0  0
    5.3216   23.6013   13.3908 N   0  0  0  0  0  0  0  0  0  0  0  0
    3.2215   25.0836   18.3742 Cl  0  0  0  0  0  0  0  0  0  0  0  0
  1  2  2  0
  1  7  1  0
  2  4  1  0
  3 10  1  0
  3 36  1  0
  4  8  2  0
  5  6  1  0
  5  7  1  0
  5 11  1  1
  6 36  2  0
  6 37  1  0
  7  9  2  0
  8  9  1  0
  8 40  1  0
 10 37  1  0
 10 38  2  3
 11 32  2  0
 11 39  1  0
 12 14  1  0
 12 33  2  0
 12 38  1  0
 13 14  2  0
 13 16  1  0
 14 19  1  0
 15 17  1  0
 15 24  1  0
 16 21  2  0
 17 23  2  0
 18 20  2  0
 18 25  1  0
 18 39  1  0
 19 22  2  0
 20 26  1  0
 21 22  1  0
 23 25  1  0
 23 27  1  0
 24 28  2  0
 25 30  2  0
 26 29  1  0
 26 31  2  0
 27 28  1  0
 29 34  2  0
 29 35  1  0
 30 31  1  0
M  END
$$$$

     RDKit          3D

 16 17  0  0  0  0  0  0  0  0999 V2000
    2.6535   24.1234   12.7875 C   0  0  0  0  0  0  0  0  0  0  0  0
    2.8926   24.2645   11.3164 C   0  0  0  0  0  0  0  0  0  0  0  0
    3.1165   26.3543   12.3617 C   0  0  0  0  0  0  0  0  0  0  0  0
    3.1363   26.7957   15.2559 C   0  0  0  0  0  0  0  0  0  0  0  0
    3.0981   26.9789   16.6249 C   0  0  0  0  0  0  0  0  0  0  0  0
    3.2423   23.6271    9.1708 C   0  0  0  0  0  0  0  0  0  0  0  0
    3.2808   25.5344   14.7758 C   0  0  0  0  0  0  0  0  0  0  0  0
    3.4721   24.4899   15.6756 C   0  0  0  0  0  0  0  0  0  0  0  0
    3.6198   24.8924    8.8710 C   0  0  0  0  0  0  0  0  0  0  0  0
    3.6070   25.8616    9.8157 C   0  0  0  0  0  0  0  0  0  0  0  0
    2.8522   23.2845   10.4185 O   0  0  0  0  0  0  0  0  0  0  0  0
    3.2708   22.6645    8.1216 N   0  0  0  0  0  0  0  0  0  0  0  0
    3.2238   25.2978   13.3590 N   0  0  0  0  0  0  0  0  0  0  0  0
    3.2503   25.9201   17.4466 N   0  0  0  0  0  0  0  0  0  0  0  0
    3.5125   24.7096   16.9841 N   0  0  0  0  0  0  0  0  0  0  0  0
    3.2861   25.7828   11.1297 S   0  0  0  0  0  0  0  0  0  0  0  0
  1  2  1  0
  1 13  1  0
  2 11  1  0
  3 13  1  0
  3 16  1  0
  4  5  2  0
  4  7  1  0
  5 14  1  0
  6  9  2  3
  6 11  1  0
  6 12  1  0
  7  8  2  0
  7 13  1  0
  8 15  1  0
  9 10  1  0
 10 16  1  0
 14 15  2  0
M  END
$$$$

     RDKit          3D

 29 33  0  0  0  0  0  0  0  0999 V2000
    1.3988   27.5281   14.6114 C   0  0  0  0  0  0  0  0  0  0  0  0
    2.0613   26.2176   14.8836 C   0  0  1  0  0  0  0  0  0  0  0  0
    2.6082   25.0670   11.2998 C   0  0  0  0  0  0  0  0  0  0  0  0
    2.5393   25.3358   13.9083 C   0  0  0  0  0  0  0  0  0  0  0  0
    3.1253   26.1485   10.5017 C   0  0  2  0  0  0  0  0  0  0  0  0
    3.0698   27.4994   10.9139 C   0  0  0  0  0  0  0  0  0  0  0  0
    3.1917   23.6336    9.5159 C   0  0  0  0  0  0  0  0  0  0  0  0
    3.2317   24.7760   15.9686 C   0  0  0  0  0  0  0  0  0  0  0  0
    3.6543   25.8886    9.2346 C   0  0  0  0  0  0  0  0  0  0  0  0
    3.6457   28.5073   10.1639 C   0  0  0  0  0  0  0  0  0  0  0  0
    4.2550   23.5099   14.1781 C   0  0  0  0  0  0  0  0  0  0  0  0
    4.2230   26.9283    8.4758 C   0  0  0  0  0  0  0  0  0  0  0  0
    4.2110   28.2270    8.9347 C   0  0  0  0  0  0  0  0  0  0  0  0
    5.6707   23.6606   14.1145 C   0  0  0  0  0  0  0  0  0  0  0  0
    5.8848   26.1576   14.1315 C   0  0  0  0  0  0  0  0  0  0  0  0
    6.4362   24.8906   14.3724 C   0  0  0  0  0  0  0  0  0  0  0  0
    6.5326   27.2997   14.5230 C   0  0  0  0  0  0  0  0  0  0  0  0
    7.7236   24.7797   14.9162 C   0  0  0  0  0  0  0  0  0  0  0  0
    7.7874   27.2032   15.0988 C   0  0  0  0  0  0  0  0  0  0  0  0
    8.4033   25.9662   15.2469 C   0  0  0  0  0  0  0  0  0  0  0  0
    2.0871   25.2948   12.5824 N   0  0  0  0  0  0  0  0  0  0  0  0
    2.4278   25.8233   16.1233 N   0  0  0  0  0  0  0  0  0  0  0  0
    2.6749   23.8108   10.7772 N   0  0  0  0  0  0  0  0  0  0  0  0
    3.3680   22.3914    9.0874 N   0  0  0  0  0  0  0  0  0  0  0  0
    3.3604   24.4873   14.6421 N   0  0  0  0  0  0  0  0  0  0  0  0
    3.6857   24.6276    8.7782 N   0  0  0  0  0  0  0  0  0  0  0  0
    3.9752   22.2696   13.8195 N   0  0  0  0  0  0  0  0  0  0  0  0
    5.1399   21.6502   13.5226 N   0  0  0  0  0  0  0  0  0  0  0  0
    6.1836   22.5136   13.6668 N   0  0  0  0  0  0  0  0  0  0  0  0
  2  1  1  6
  2  4  1  0
  2 22  1  0
  3  5  1  0
  3 21  1  0
  3 23  2  0
  4 21  2  3
  4 25  1  0
  5  6  1  6
  5  9  1  0
  6 10  2  0
  7 23  1  0
  7 24  2  0
  7 26  1  0
  8 22  1  0
  8 25  1  0
  9 12  1  0
  9 26  2  0
 10 13  1  0
 11 14  2  0
 11 25  1  0
 11 27  1  0
 12 13  2  0
 14 16  1  0
 14 29  1  0
 15 16  2  0
 15 17  1  0
 16 18  1  0
 17 19  2  0
 18 20  2  0
 19 20  1  0
 27 28  1  0
 28 29  1  0
M  END
$$$$

     RDKit          3D

 14 15  0  0  0  0  0  0  0  0999 V2000
    2.3638   24.5581   11.8553 C   0  0  0  0  0  0  0  0  0  0  0  0
    2.3298   24.5829   14.3284 C   0  0  0  0  0  0  0  0  0  0  0  0
    2.5361   24.4200    9.3205 C   0  0  1  0  0  0  0  0  0  0  0  0
    2.5808   25.2100   13.0751 C   0  0  0  0  0  0  0  0  0  0  0  0
    2.5445   25.2141   15.5322 C   0  0  0  0  0  0  0  0  0  0  0  0
    2.7279   25.1406   10.6375 C   0  0  0  0  0  0  0  0  0  0  0  0
    3.0888   26.5150   13.0890 C   0  0  0  0  0  0  0  0  0  0  0  0
    3.0193   26.5400   15.5226 C   0  0  0  0  0  0  0  0  0  0  0  0
    3.2696   26.4344   10.6523 C   0  0  0  0  0  0  0  0  0  0  0  0
    3.3215   27.1714   14.3207 C   0  0  0  0  0  0  0  0  0  0  0  0
    3.5295   23.2979    9.1238 C   0  0  0  0  0  0  0  0  0  0  0  0
    3.4269   27.1317   11.8529 C   0  0  0  0  0  0  0  0  0  0  0  0
    3.9460   22.5387   10.0314 O   0  0  0  0  0  0  0  0  0  0  0  0
    1.2151   23.9592    9.1143 F   0  0  0  0  0  0  0  0  0  0  0  0
  1  4  2  0
  1  6  1  0
  2  4  1  0
  2  5  2  0
  3  6  1  0
  3 11  1  0
  3 14  1  1
  4  7  1  0
  5  8  1  0
  6  9  2  0
  7 10  1  0
  7 12  2  0
  8 10  2  0
  9 12  1  0
 11 13  2  0
M  END
$$$$

     RDKit          3D

 15 16  0  0  0  0  0  0  0  0999 V2000
    1.9364   27.3207   14.4112 C   0  0  0  0  0  0  0  0  0  0  0  0
    2.3499   26.5596   13.3524 C   0  0  0  0  0  0  0  0  0  0  0  0
    2.7049   24.3866   11.2514 C   0  0  0  0  0  0  0  0  0  0  0  0
    2.7658   25.7602   15.9338 C   0  0  0  0  0  0  0  0  0  0  0  0
    2.9828   25.3429   13.5762 C   0  0  0  0  0  0  0  0  0  0  0  0
    3.4063   22.9014    7.8640 C   0  0  0  0  0  0  0  0  0  0  0  0
    3.2551   23.5985   10.2122 C   0  0  0  0  0  0  0  0  0  0  0  0
    3.3961   24.4720   12.4731 C   0  0  0  0  0  0  0  0  0  0  0  0
    3.1910   24.9408   14.8920 C   0  0  0  0  0  0  0  0  0  0  0  0
    4.4674   22.9531   10.4433 C   0  0  0  0  0  0  0  0  0  0  0  0
    4.5619   23.7306   12.6368 C   0  0  0  0  0  0  0  0  0  0  0  0
    5.1012   22.9662   11.6353 C   0  0  0  0  0  0  0  0  0  0  0  0
    1.3054   23.3665    8.9537 O   0  0  0  0  0  0  0  0  0  0  0  0
    2.1501   26.9327   15.6958 N   0  0  0  0  0  0  0  0  0  0  0  0
    2.6414   23.4405    8.9581 N   0  0  0  0  0  0  0  0  0  0  0  0
  1  2  2  0
  1 14  1  0
  2  5  1  0
  3  7  2  0
  3  8  1  0
  4  9  1  0
  4 14  2  0
  5  8  1  0
  5  9  2  0
  6 15  1  0
  7 10  1  0
  7 15  1  0
  8 11  2  0
 10 12  2  0
 11 12  1  0
 13 15  1  0
M  END
$$$$

     RDKit          3D

 23 25  0  0  0  0  0  0  0  0999 V2000
    1.1255   26.8629   15.4291 C   0  0  0  0  0  0  0  0  0  0  0  0
    1.9629   25.1861   16.2637 C   0  0  0  0  0  0  0  0  0  0  0  0
    2.2743   26.4989   14.3898 C   0  0  2  0  0  0  0  0  0  0  0  0
    2.3736   27.0655   13.0821 C   0  0  0  0  0  0  0  0  0  0  0  0
    2.6542   25.2513   14.9548 C   0  0  2  0  0  0  0  0  0  0  0  0
    3.0580   25.1671   11.5662 C   0  0  0  0  0  0  0  0  0  0  0  0
    2.9417   26.5186   11.8203 C   0  0  0  0  0  0  0  0  0  0  0  0
    3.6385   24.6550   10.4095 C   0  0  0  0  0  0  0  0  0  0  0  0
    3.4284   27.4084   10.8717 C   0  0  0  0  0  0  0  0  0  0  0  0
    3.7280   23.1739   10.2255 C   0  0  0  0  0  0  0  0  0  0  0  0
    3.8628   23.3458   14.1100 C   0  0  0  0  0  0  0  0  0  0  0  0
    3.9384   24.6056   14.6996 C   0  0  0  0  0  0  0  0  0  0  0  0
    4.0879   25.5513    9.4122 C   0  0  0  0  0  0  0  0  0  0  0  0
    3.9837   26.9451    9.6614 C   0  0  0  0  0  0  0  0  0  0  0  0
    4.4922   27.9551    8.6528 C   0  0  0  0  0  0  0  0  0  0  0  0
    4.8783   21.8544   12.2047 C   0  0  0  0  0  0  0  0  0  0  0  0
    5.0174   22.8298   13.4492 C   0  0  1  0  0  0  0  0  0  0  0  0
    5.1564   25.2442   14.7810 C   0  0  0  0  0  0  0  0  0  0  0  0
    6.2420   23.4135   13.6534 C   0  0  0  0  0  0  0  0  0  0  0  0
    6.3099   24.6494   14.3072 C   0  0  0  0  0  0  0  0  0  0  0  0
    1.7812   24.5421   15.3962 O   0  0  0  0  0  0  0  0  0  0  0  0
    3.4612   22.6651    9.1284 O   0  0  0  0  0  0  0  0  0  0  0  0
    3.7566   22.4135   11.3778 O   0  0  0  0  0  0  0  0  0  0  0  0
  3  1  1  6
  2 21  1  0
  3  4  1  0
  3  5  1  0
  4  7  1  0
  5 12  1  0
  5 21  1  6
  6  7  1  0
  6  8  2  0
  7  9  2  0
  8 10  1  0
  8 13  1  0
  9 14  1  0
 10 22  2  0
 10 23  1  0
 11 12  1  0
 11 17  1  0
 12 18  2  0
 13 14  2  0
 14 15  1  0
 17 16  1  6
 16 23  1  0
 17 19  1  0
 18 20  1  0
 19 20  2  0
M  END
$$$$

     RDKit          3D

 12 13  0  0  0  0  0  0  0  0999 V2000
    2.3877   26.9030   14.6143 C   0  0  0  0  0  0  0  0  0  0  0  0
    2.5238   25.6070   15.1318 C   0  0  0  0  0  0  0  0  0  0  0  0
    2.6357   26.7882   13.2235 C   0  0  0  0  0  0  0  0  0  0  0  0
    2.8446   24.7655    9.4083 C   0  0  0  0  0  0  0  0  0  0  0  0
    2.7699   24.7432   14.1066 C   0  0  0  0  0  0  0  0  0  0  0  0
    2.7511   25.4405   10.6051 C   0  0  0  0  0  0  0  0  0  0  0  0
    3.1448   24.8674   11.7612 C   0  0  0  0  0  0  0  0  0  0  0  0
    3.4245   23.5295    9.3900 C   0  0  0  0  0  0  0  0  0  0  0  0
    3.8801   22.9686   10.5513 C   0  0  0  0  0  0  0  0  0  0  0  0
    3.7352   23.6228   11.7449 C   0  0  0  0  0  0  0  0  0  0  0  0
    2.9131   25.4714   12.9809 N   0  0  0  0  0  0  0  0  0  0  0  0
    3.4851   22.8953    8.1671 N   0  0  0  0  0  0  0  0  0  0  0  0
  1  2  1  0
  1  3  1  0
  2  5  1  0
  3 11  1  0
  4  6  2  0
  4  8  1  0
  5 11  1  0
  6  7  1  0
  7 10  2  0
  7 11  1  0
  8  9  2  0
  8 12  1  0
  9 10  1  0
M  END
$$$$

     RDKit          3D

 16 17  0  0  0  0  0  0  0  0999 V2000
    2.7542   24.1205    9.2182 C   0  0  0  0  0  0  0  0  0  0  0  0
    2.7349   25.5274   15.1418 C   0  0  0  0  0  0  0  0  0  0  0  0
    3.1582   24.5237   11.7412 C   0  0  0  0  0  0  0  0  0  0  0  0
    3.0858   25.0153   10.4124 C   0  0  0  0  0  0  0  0  0  0  0  0
    2.9457   25.2255   16.5021 C   0  0  0  0  0  0  0  0  0  0  0  0
    3.3099   26.3678   10.2007 C   0  0  0  0  0  0  0  0  0  0  0  0
    3.5841   24.9659   14.1543 C   0  0  0  0  0  0  0  0  0  0  0  0
    3.4797   25.4105   12.7863 C   0  0  0  0  0  0  0  0  0  0  0  0
    3.6364   27.1983   11.2217 C   0  0  0  0  0  0  0  0  0  0  0  0
    3.7076   26.7569   12.5408 C   0  0  0  0  0  0  0  0  0  0  0  0
    4.0206   23.3990    8.6757 C   0  0  0  0  0  0  0  0  0  0  0  0
    4.0171   24.3875   16.8718 C   0  0  0  0  0  0  0  0  0  0  0  0
    4.6331   24.1154   14.5377 C   0  0  0  0  0  0  0  0  0  0  0  0
    4.8059   23.8130   15.8864 C   0  0  0  0  0  0  0  0  0  0  0  0
    3.6574   22.1402    8.0547 N   0  0  0  0  0  0  0  0  0  0  0  0
    1.4735   26.4962   14.6381 Cl  0  0  0  0  0  0  0  0  0  0  0  0
  1  4  1  0
  1 11  1  0
  2  5  2  0
  2  7  1  0
  2 16  1  0
  3  4  2  0
  3  8  1  0
  4  6  1  0
  5 12  1  0
  6  9  2  0
  7  8  1  0
  7 13  2  0
  8 10  2  0
  9 10  1  0
 11 15  1  0
 12 14  2  0
 13 14  1  0
M  END
$$$$

     RDKit          3D

 15 16  0  0  0  0  0  0  0  0999 V2000
    2.2800   27.7359   16.3045 C   0  0  0  0  0  0  0  0  0  0  0  0
    2.4273   24.0565   11.9364 C   0  0  0  0  0  0  0  0  0  0  0  0
    2.4742   24.6613   13.1874 C   0  0  0  0  0  0  0  0  0  0  0  0
    2.7058   24.8266   10.8128 C   0  0  0  0  0  0  0  0  0  0  0  0
    2.7245   26.0231   13.3037 C   0  0  0  0  0  0  0  0  0  0  0  0
    3.0062   26.1599   10.9155 C   0  0  0  0  0  0  0  0  0  0  0  0
    3.0041   26.7531   12.1756 C   0  0  0  0  0  0  0  0  0  0  0  0
    3.6694   23.3505    9.1298 C   0  0  0  0  0  0  0  0  0  0  0  0
    3.7830   26.4461   15.4236 C   0  0  0  0  0  0  0  0  0  0  0  0
    4.7582   23.2870    9.6860 O   0  0  0  0  0  0  0  0  0  0  0  0
    1.8297   27.3766   15.0904 N   0  0  0  0  0  0  0  0  0  0  0  0
    2.6797   24.1940    9.5400 N   0  0  0  0  0  0  0  0  0  0  0  0
    2.7614   26.5561   14.5851 N   0  0  0  0  0  0  0  0  0  0  0  0
    3.3777   22.5641    8.0431 N   0  0  0  0  0  0  0  0  0  0  0  0
    3.4692   27.1716   16.5020 N   0  0  0  0  0  0  0  0  0  0  0  0
  1 11  1  0
  1 15  1  0
  2  3  2  0
  2  4  1  0
  3  5  1  0
  4  6  2  0
  4 12  1  0
  5  7  2  0
  5 13  1  0
  6  7  1  0
  8 10  2  0
  8 12  1  0
  8 14  1  0
  9 13  1  0
  9 15  1  0
 11 13  1  0
M  END
$$$$

     RDKit          3D

 33 36  0  0  0  0  0  0  0  0999 V2000
    2.4727   24.7841   11.6079 C   0  0  0  0  0  0  0  0  0  0  0  0
    2.7476   24.3189    9.4365 C   0  0  0  0  0  0  0  0  0  0  0  0
    2.8301   26.3517   15.0669 C   0  0  0  0  0  0  0  0  0  0  0  0
    2.9573   24.2019   13.8288 C   0  0  2  0  0  0  0  0  0  0  0  0
    2.9642   27.0132   16.2708 C   0  0  0  0  0  0  0  0  0  0  0  0
    3.1769   25.0264   14.9989 C   0  0  0  0  0  0  0  0  0  0  0  0
    3.3725   25.5853    9.7141 C   0  0  0  0  0  0  0  0  0  0  0  0
    3.2008   25.8701   11.0655 C   0  0  0  0  0  0  0  0  0  0  0  0
    3.3476   26.3288   17.4232 C   0  0  0  0  0  0  0  0  0  0  0  0
    3.5394   24.3454   16.1320 C   0  0  0  0  0  0  0  0  0  0  0  0
    3.5891   24.9604   17.3658 C   0  0  0  0  0  0  0  0  0  0  0  0
    4.0852   26.4782    8.8220 C   0  0  0  0  0  0  0  0  0  0  0  0
    4.0379   27.9052    9.2479 C   0  0  0  0  0  0  0  0  0  0  0  0
    4.3425   24.6166   13.5353 C   0  0  0  0  0  0  0  0  0  0  0  0
    4.8733   22.2627   13.0118 C   0  0  0  0  0  0  0  0  0  0  0  0
    5.1320   28.8202    8.7953 C   0  0  0  0  0  0  0  0  0  0  0  0
    5.2775   23.5405   13.4117 C   0  0  0  0  0  0  0  0  0  0  0  0
    5.3232   29.0676    7.4171 C   0  0  0  0  0  0  0  0  0  0  0  0
    5.7724   21.2212   12.9553 C   0  0  0  0  0  0  0  0  0  0  0  0
    5.9223   29.4328    9.7445 C   0  0  0  0  0  0  0  0  0  0  0  0
    6.3244   29.9314    7.0536 C   0  0  0  0  0  0  0  0  0  0  0  0
    6.6018   23.7679   13.6877 C   0  0  0  0  0  0  0  0  0  0  0  0
    7.1264   21.4819   13.2805 C   0  0  0  0  0  0  0  0  0  0  0  0
    6.9170   30.3225    9.3229 C   0  0  0  0  0  0  0  0  0  0  0  0
    7.1162   30.5819    7.9914 C   0  0  0  0  0  0  0  0  0  0  0  0
    7.5203   22.7450   13.6296 C   0  0  0  0  0  0  0  0  0  0  0  0
    8.1001   20.3631   13.2030 C   0  0  0  0  0  0  0  0  0  0  0  0
    7.6919   19.2316   13.1981 O   0  0  0  0  0  0  0  0  0  0  0  0
    9.3090   20.6669   13.1924 O   0  0  0  0  0  0  0  0  0  0  0  0
    2.0121   24.6549   12.9100 N   0  0  0  0  0  0  0  0  0  0  0  0
    2.2424   23.8900   10.6504 N   0  0  0  0  0  0  0  0  0  0  0  0
    2.7152   23.4477    8.4510 N   0  0  0  0  0  0  0  0  0  0  0  0
    2.1368   27.3067   13.7638 Cl  0  0  0  0  0  0  0  0  0  0  0  0
  1  8  1  0
  1 30  2  3
  1 31  1  0
  2  7  1  0
  2 31  1  0
  2 32  2  0
  3  5  2  0
  3  6  1  0
  3 33  1  0
  4  6  1  0
  4 14  1  6
  4 30  1  0
  5  9  1  0
  6 10  2  0
  7  8  1  0
  7 12  1  0
  9 11  2  0
 10 11  1  0
 12 13  1  0
 13 16  1  0
 14 17  1  0
 15 17  2  0
 15 19  1  0
 16 18  2  0
 16 20  1  0
 17 22  1  0
 18 21  1  0
 19 23  2  0
 20 24  2  0
 21 25  2  0
 22 26  2  0
 23 26  1  0
 23 27  1  0
 24 25  1  0
 27 28  2  0
 27 29  1  0
M  END
$$$$

     RDKit          3D

 15 17  0  0  0  0  0  0  0  0999 V2000
    2.6377   23.3474    8.8957 C   0  0  0  0  0  0  0  0  0  0  0  0
    2.7050   24.8241    8.7723 C   0  0  0  0  0  0  0  0  0  0  0  0
    2.9597   24.0588   10.9949 C   0  0  0  0  0  0  0  0  0  0  0  0
    3.0431   24.2715   12.3643 C   0  0  0  0  0  0  0  0  0  0  0  0
    2.9202   25.1635   10.1551 C   0  0  0  0  0  0  0  0  0  0  0  0
    3.1194   25.5564   12.8802 C   0  0  0  0  0  0  0  0  0  0  0  0
    2.9924   26.4361   10.6597 C   0  0  0  0  0  0  0  0  0  0  0  0
    3.1157   26.6413   12.0150 C   0  0  0  0  0  0  0  0  0  0  0  0
    2.9511   27.0590   14.8680 C   0  0  0  0  0  0  0  0  0  0  0  0
    2.9561   27.3025   16.2279 C   0  0  0  0  0  0  0  0  0  0  0  0
    3.3958   24.7257   15.2292 C   0  0  0  0  0  0  0  0  0  0  0  0
    3.1614   25.7949   14.3504 C   0  0  0  0  0  0  0  0  0  0  0  0
    3.2322   26.2381   17.0960 C   0  0  0  0  0  0  0  0  0  0  0  0
    3.4396   24.9487   16.6024 C   0  0  0  0  0  0  0  0  0  0  0  0
    2.9502   22.9181   10.3843 O   0  0  0  0  0  0  0  0  0  0  0  0
  1  2  1  0
  1 15  1  0
  2  5  1  0
  3  4  1  0
  3  5  2  0
  3 15  1  0
  4  6  2  0
  5  7  1  0
  6  8  1  0
  6 12  1  0
  7  8  2  0
  9 10  2  0
  9 12  1  0
 10 13  1  0
 11 12  2  0
 11 14  1  0
 13 14  2  0
M  END
$$$$

     RDKit          3D

 18 20  0  0  0  0  0  0  0  0999 V2000
    1.7660   26.0124   14.4269 C   0  0  0  0  0  0  0  0  0  0  0  0
    2.1165   26.5467   15.6897 C   0  0  0  0  0  0  0  0  0  0  0  0
    2.3270   24.7937   14.0097 C   0  0  0  0  0  0  0  0  0  0  0  0
    2.6971   24.2512   11.5601 C   0  0  0  0  0  0  0  0  0  0  0  0
    3.0955   25.4407   10.8874 C   0  0  0  0  0  0  0  0  0  0  0  0
    3.0160   26.7826   11.2254 C   0  0  0  0  0  0  0  0  0  0  0  0
    3.2626   24.1712   14.8640 C   0  0  0  0  0  0  0  0  0  0  0  0
    3.5636   24.7237   16.0978 C   0  0  0  0  0  0  0  0  0  0  0  0
    3.4582   27.7202   10.3407 C   0  0  0  0  0  0  0  0  0  0  0  0
    3.7066   23.6338    9.5778 C   0  0  0  0  0  0  0  0  0  0  0  0
    3.6741   25.0594    9.6706 C   0  0  0  0  0  0  0  0  0  0  0  0
    4.1434   26.0268    8.7675 C   0  0  0  0  0  0  0  0  0  0  0  0
    4.0321   27.3756    9.1320 C   0  0  0  0  0  0  0  0  0  0  0  0
    4.4081   24.0547   16.8658 O   0  0  0  0  0  0  0  0  0  0  0  0
    2.0041   24.1694   12.7760 N   0  0  0  0  0  0  0  0  0  0  0  0
    3.0833   23.1746   10.7852 N   0  0  0  0  0  0  0  0  0  0  0  0
    2.9911   25.8991   16.4789 N   0  0  0  0  0  0  0  0  0  0  0  0
    4.2659   22.8599    8.6442 N   0  0  0  0  0  0  0  0  0  0  0  0
  1  2  1  0
  1  3  1  0
  2 17  2  0
  3  7  2  0
  3 15  1  0
  4  5  2  0
  4 15  1  0
  4 16  1  0
  5  6  1  0
  5 11  1  0
  6  9  2  0
  7  8  1  0
  8 14  2  0
  8 17  1  0
  9 13  1  0
 10 11  1  0
 10 16  1  0
 10 18  2  0
 11 12  1  0
 12 13  2  0
M  END
$$$$

     RDKit          3D

 13 14  0  0  0  0  0  0  0  0999 V2000
    1.9749   24.7587   14.2751 C   0  0  0  0  0  0  0  0  0  0  0  0
    2.0634   25.5684   15.4040 C   0  0  0  0  0  0  0  0  0  0  0  0
    2.3838   24.3443   11.8215 C   0  0  0  0  0  0  0  0  0  0  0  0
    2.5105   24.1948    9.2423 C   0  0  2  0  0  0  0  0  0  0  0  0
    2.5790   25.0914   13.0580 C   0  0  0  0  0  0  0  0  0  0  0  0
    2.7607   24.8742   10.5851 C   0  0  0  0  0  0  0  0  0  0  0  0
    2.7812   26.7029   15.3505 C   0  0  0  0  0  0  0  0  0  0  0  0
    3.2704   26.2802   12.9872 C   0  0  0  0  0  0  0  0  0  0  0  0
    3.4080   27.0555   14.1664 C   0  0  0  0  0  0  0  0  0  0  0  0
    3.4409   26.0855   10.5906 C   0  0  0  0  0  0  0  0  0  0  0  0
    3.7046   26.7624   11.7493 C   0  0  0  0  0  0  0  0  0  0  0  0
    1.1132   24.0622    8.9430 O   0  0  0  0  0  0  0  0  0  0  0  0
    3.3334   23.0150    9.1070 N   0  0  0  0  0  0  0  0  0  0  0  0
  1  2  1  0
  1  5  1  0
  2  7  2  0
  3  5  2  0
  3  6  1  0
  4  6  1  0
  4 12  1  0
  4 13  1  1
  5  8  1  0
  6 10  2  0
  7  9  1  0
  8  9  1  0
  8 11  2  0
 10 11  1  0
M  END
$$$$

     RDKit          3D

 12 12  0  0  0  0  0  0  0  0999 V2000
    2.1817   24.6969   14.0450 C   0  0  0  0  0  0  0  0  0  0  0  0
    2.3883   25.1571   15.3311 C   0  0  0  0  0  0  0  0  0  0  0  0
    2.6138   23.6437    9.6397 C   0  0  0  0  0  0  0  0  0  0  0  0
    2.5309   25.4147   12.9103 C   0  0  0  0  0  0  0  0  0  0  0  0
    2.9886   23.9358   11.0240 C   0  0  0  0  0  0  0  0  0  0  0  0
    2.9725   26.4198   15.4983 C   0  0  0  0  0  0  0  0  0  0  0  0
    3.1329   26.6656   13.1239 C   0  0  0  0  0  0  0  0  0  0  0  0
    3.3470   27.1298   14.4119 C   0  0  0  0  0  0  0  0  0  0  0  0
    1.4327   23.9492    9.1929 O   0  0  0  0  0  0  0  0  0  0  0  0
    2.3112   24.9522   11.6456 N   0  0  0  0  0  0  0  0  0  0  0  0
    3.4815   22.9835    8.8689 N   0  0  0  0  0  0  0  0  0  0  0  0
    3.9952   23.1995   11.5721 N   0  0  0  0  0  0  0  0  0  0  0  0
  1  2  1  0
  1  4  2  0
  2  6  1  0
  3  5  1  0
  3  9  2  0
  3 11  1  0
  4  7  1  0
  4 10  1  0
  5 10  1  0
  5 12  2  0
  6  8  2  0
  7  8  1  0
M  END
$$$$

     RDKit          3D

 10 10  0  0  0  0  0  0  0  0999 V2000
    2.6767   24.4757   11.5451 C   0  0  0  0  0  0  0  0  0  0  0  0
    2.8895   25.7165   12.1679 C   0  0  0  0  0  0  0  0  0  0  0  0
    3.1017   24.2850   10.2115 C   0  0  0  0  0  0  0  0  0  0  0  0
    3.6018   25.3339    9.4857 C   0  0  0  0  0  0  0  0  0  0  0  0
    3.4707   25.3659   14.5447 C   0  0  0  0  0  0  0  0  0  0  0  0
    3.4139   26.7717   11.4351 C   0  0  0  0  0  0  0  0  0  0  0  0
    3.7590   26.5722   10.0845 C   0  0  0  0  0  0  0  0  0  0  0  0
    3.9760   23.9575   14.4681 C   0  0  0  0  0  0  0  0  0  0  0  0
    2.5260   25.8102   13.5110 N   0  0  0  0  0  0  0  0  0  0  0  0
    4.4884   23.2202   15.2678 N   0  0  0  0  0  0  0  0  0  0  0  0
  1  2  2  0
  1  3  1  0
  2  6  1  0
  2  9  1  0
  3  4  2  0
  4  7  1  0
  5  8  1  0
  5  9  1  0
  6  7  2  0
  8 10  2  0
M  END
$$$$

     RDKit          3D

 10 11  0  0  0  0  0  0  0  0999 V2000
    2.3981   24.9058   10.4213 C   0  0  0  0  0  0  0  0  0  0  0  0
    2.2198   25.1030   12.8475 C   0  0  0  0  0  0  0  0  0  0  0  0
    2.7942   24.5573   11.6750 C   0  0  0  0  0  0  0  0  0  0  0  0
    2.7048   24.8148   14.0465 C   0  0  0  0  0  0  0  0  0  0  0  0
    3.0134   24.3758    9.3483 C   0  0  0  0  0  0  0  0  0  0  0  0
    3.8259   23.6323   11.8711 C   0  0  0  0  0  0  0  0  0  0  0  0
    3.7200   23.9570   14.2131 C   0  0  0  0  0  0  0  0  0  0  0  0
    4.0038   23.3990    9.4927 C   0  0  0  0  0  0  0  0  0  0  0  0
    4.3668   23.0920   10.7157 C   0  0  0  0  0  0  0  0  0  0  0  0
    4.2765   23.3447   13.1350 C   0  0  0  0  0  0  0  0  0  0  0  0
  1  3  2  0
  1  5  1  0
  2  3  1  0
  2  4  2  0
  3  6  1  0
  4  7  1  0
  5  8  2  0
  6  9  2  0
  6 10  1  0
  7 10  2  0
  8  9  1  0
M  END
$$$$

     RDKit          3D

 15 16  0  0  0  0  0  0  0  0999 V2000
    2.6569   23.6804    9.4546 C   0  0  0  0  0  0  0  0  0  0  0  0
    2.9085   24.6302   10.5811 C   0  0  0  0  0  0  0  0  0  0  0  0
    2.7600   25.3694   15.2928 C   0  0  0  0  0  0  0  0  0  0  0  0
    3.0225   24.1475   11.8787 C   0  0  0  0  0  0  0  0  0  0  0  0
    3.0488   25.0805   16.6086 C   0  0  0  0  0  0  0  0  0  0  0  0
    3.0611   25.9663   10.2315 C   0  0  0  0  0  0  0  0  0  0  0  0
    3.2955   25.1249   12.8726 C   0  0  0  0  0  0  0  0  0  0  0  0
    3.3381   26.8955   11.2324 C   0  0  0  0  0  0  0  0  0  0  0  0
    3.4806   24.7773   14.2697 C   0  0  0  0  0  0  0  0  0  0  0  0
    3.4426   26.4690   12.5392 C   0  0  0  0  0  0  0  0  0  0  0  0
    3.9488   23.1949    8.8492 C   0  0  0  0  0  0  0  0  0  0  0  0
    4.0834   24.2121   16.9013 C   0  0  0  0  0  0  0  0  0  0  0  0
    4.4887   23.8523   14.5941 C   0  0  0  0  0  0  0  0  0  0  0  0
    4.7801   23.5614   15.9250 C   0  0  0  0  0  0  0  0  0  0  0  0
    3.6498   22.0861    8.0317 N   0  0  0  0  0  0  0  0  0  0  0  0
  1  2  1  0
  1 11  1  0
  2  4  2  0
  2  6  1  0
  3  5  1  0
  3  9  2  0
  4  7  1  0
  5 12  1  0
  6  8  2  0
  7  9  1  0
  7 10  2  0
  8 10  1  0
  9 13  1  0
 11 15  1  0
 12 14  2  0
 13 14  1  0
M  END
$$$$

     RDKit          3D

 10 11  0  0  0  0  0  0  0  0999 V2000
    2.1980   24.8044   14.7059 C   0  0  0  0  0  0  0  0  0  0  0  0
    2.2971   27.1837   14.9789 C   0  0  0  0  0  0  0  0  0  0  0  0
    2.5418   24.1577   11.2476 C   0  0  0  0  0  0  0  0  0  0  0  0
    2.4435   24.6222   12.5502 C   0  0  0  0  0  0  0  0  0  0  0  0
    2.6545   25.9327   12.8708 C   0  0  0  0  0  0  0  0  0  0  0  0
    2.8988   25.0248   10.2621 C   0  0  0  0  0  0  0  0  0  0  0  0
    3.0614   26.8475   11.8906 C   0  0  0  0  0  0  0  0  0  0  0  0
    3.1845   26.3982   10.6052 C   0  0  0  0  0  0  0  0  0  0  0  0
    2.2083   23.9336   13.6894 N   0  0  0  0  0  0  0  0  0  0  0  0
    2.3972   26.0624   14.1993 N   0  0  0  0  0  0  0  0  0  0  0  0
  1  9  1  0
  1 10  1  0
  2 10  1  0
  3  4  2  0
  3  6  1  0
  4  5  1  0
  4  9  1  0
  5  7  2  0
  5 10  1  0
  6  8  2  0
  7  8  1  0
M  END
$$$$

     RDKit          3D

 31 34  0  0  0  0  0  0  0  0999 V2000
    2.5596   24.5538    9.8032 C   0  0  0  0  0  0  0  0  0  0  0  0
    2.6020   25.1895   11.8470 C   0  0  0  0  0  0  0  0  0  0  0  0
    2.4331   25.4355   13.3122 C   0  0  0  0  0  0  0  0  0  0  0  0
    2.7619   28.9807    9.9086 C   0  0  0  0  0  0  0  0  0  0  0  0
    3.2621   25.7476    9.8616 C   0  0  0  0  0  0  0  0  0  0  0  0
    3.3447   25.7866   18.1039 C   0  0  0  0  0  0  0  0  0  0  0  0
    3.3512   26.6013   15.8516 C   0  0  0  0  0  0  0  0  0  0  0  0
    3.1986   26.8355   17.2070 C   0  0  0  0  0  0  0  0  0  0  0  0
    3.6481   24.5177   17.6480 C   0  0  0  0  0  0  0  0  0  0  0  0
    3.6460   25.3056   15.4281 C   0  0  0  0  0  0  0  0  0  0  0  0
    3.7613   24.2619   16.3267 C   0  0  0  0  0  0  0  0  0  0  0  0
    3.7662   25.0725   13.9284 C   0  0  1  0  0  0  0  0  0  0  0  0
    3.9025   26.6372    8.9132 C   0  0  0  0  0  0  0  0  0  0  0  0
    5.2590   21.8161   13.0484 C   0  0  0  0  0  0  0  0  0  0  0  0
    5.2643   23.0272   13.6868 C   0  0  2  0  0  0  0  0  0  0  0  0
    5.2317   29.0930    7.4275 C   0  0  0  0  0  0  0  0  0  0  0  0
    5.2213   29.0221    8.8435 C   0  0  0  0  0  0  0  0  0  0  0  0
    6.2161   29.6218    9.5802 C   0  0  0  0  0  0  0  0  0  0  0  0
    6.2762   29.7436    6.7879 C   0  0  0  0  0  0  0  0  0  0  0  0
    6.4388   21.1427   13.3875 C   0  0  0  0  0  0  0  0  0  0  0  0
    6.4708   23.1838   14.3743 C   0  0  0  0  0  0  0  0  0  0  0  0
    7.2834   30.3548    7.5420 C   0  0  0  0  0  0  0  0  0  0  0  0
    7.2519   30.2932    8.9250 C   0  0  0  0  0  0  0  0  0  0  0  0
    2.0361   23.8690    8.6054 O   0  0  0  0  0  0  0  0  0  0  0  0
    6.8175   19.9728   12.9065 O   0  0  0  0  0  0  0  0  0  0  0  0
    2.1536   24.2020   11.0363 N   0  0  0  0  0  0  0  0  0  0  0  0
    3.3382   26.0554   11.1332 N   0  0  0  0  0  0  0  0  0  0  0  0
    4.0861   23.6944   13.5733 N   0  0  0  0  0  0  0  0  0  0  0  0
    7.1748   21.9674   14.1773 N   0  0  0  0  0  0  0  0  0  0  0  0
    3.9781   28.2358    9.6039 S   0  0  1  0  0  0  0  0  0  0  0  0
    3.1515   25.9089   19.3977 F   0  0  0  0  0  0  0  0  0  0  0  0
  1  5  1  0
  1 24  2  0
  1 26  1  0
  2  3  1  0
  2 26  2  0
  2 27  1  0
 12  3  1  6
 30  4  1  6
  5 13  1  0
  5 27  1  0
  6  8  2  0
  6  9  1  0
  6 31  1  0
  7  8  1  0
  7 10  2  0
  9 11  2  0
 10 11  1  0
 10 12  1  0
 12 28  1  0
 13 30  1  0
 14 15  1  0
 14 20  1  0
 15 21  1  0
 15 28  1  1
 16 17  2  0
 16 19  1  0
 17 18  1  0
 17 30  1  0
 18 23  2  0
 19 22  2  0
 20 25  2  0
 20 29  1  0
 21 29  1  0
 22 23  1  0
M  END
$$$$

     RDKit          3D

 16 18  0  0  0  0  0  0  0  0999 V2000
    2.1649   23.6229    9.3892 C   0  0  0  0  0  0  0  0  0  0  0  0
    2.1866   23.6335   10.7309 C   0  0  0  0  0  0  0  0  0  0  0  0
    2.6414   24.6483    8.6292 C   0  0  0  0  0  0  0  0  0  0  0  0
    2.6297   24.7043   11.3796 C   0  0  0  0  0  0  0  0  0  0  0  0
    2.8953   27.1179   15.2581 C   0  0  0  0  0  0  0  0  0  0  0  0
    3.1528   25.7254    9.2690 C   0  0  0  0  0  0  0  0  0  0  0  0
    3.0703   25.7952   13.3516 C   0  0  0  0  0  0  0  0  0  0  0  0
    3.0200   27.1896   16.6281 C   0  0  0  0  0  0  0  0  0  0  0  0
    3.1780   24.7411   15.4773 C   0  0  0  0  0  0  0  0  0  0  0  0
    3.2989   24.9049   16.8320 C   0  0  0  0  0  0  0  0  0  0  0  0
    3.2020   25.7680   10.6533 C   0  0  0  0  0  0  0  0  0  0  0  0
    3.6978   26.8819   11.3647 C   0  0  0  0  0  0  0  0  0  0  0  0
    2.6507   24.7023   12.7432 N   0  0  0  0  0  0  0  0  0  0  0  0
    2.9448   25.8711   14.6986 N   0  0  0  0  0  0  0  0  0  0  0  0
    3.2541   26.1053   17.3983 N   0  0  0  0  0  0  0  0  0  0  0  0
    3.6150   26.8335   12.7122 N   0  0  0  0  0  0  0  0  0  0  0  0
  1  2  2  0
  1  3  1  0
  2  4  1  0
  3  6  2  0
  4 11  2  0
  4 13  1  0
  5  8  2  0
  5 14  1  0
  6 11  1  0
  7 13  2  0
  7 14  1  0
  7 16  1  0
  8 15  1  0
  9 10  1  0
  9 14  1  0
 10 15  2  0
 11 12  1  0
 12 16  2  0
M  END
$$$$

     RDKit          3D

 25 28  0  0  0  0  0  0  0  0999 V2000
    1.4476   25.1422   14.7809 C   0  0  0  0  0  0  0  0  0  0  0  0
    1.9170   26.5186   14.7181 C   0  0  0  0  0  0  0  0  0  0  0  0
    2.8003   26.9748   15.8195 C   0  0  0  0  0  0  0  0  0  0  0  0
    3.3785   24.6302   11.4955 C   0  0  0  0  0  0  0  0  0  0  0  0
    3.5761   23.3378   11.0631 C   0  0  0  0  0  0  0  0  0  0  0  0
    3.6557   25.0088   13.8370 C   0  0  0  0  0  0  0  0  0  0  0  0
    3.5882   25.6452   16.2144 C   0  0  0  0  0  0  0  0  0  0  0  0
    3.5909   25.7317   10.6309 C   0  0  0  0  0  0  0  0  0  0  0  0
    3.6006   27.0803   11.0369 C   0  0  0  0  0  0  0  0  0  0  0  0
    3.7833   23.1178    9.6954 C   0  0  0  0  0  0  0  0  0  0  0  0
    3.8954   24.1537    8.8166 C   0  0  0  0  0  0  0  0  0  0  0  0
    3.8242   25.4503    9.2639 C   0  0  2  0  0  0  0  0  0  0  0  0
    3.8466   28.0924   10.0992 C   0  0  0  0  0  0  0  0  0  0  0  0
    4.0956   26.4904    8.3508 C   0  0  0  0  0  0  0  0  0  0  0  0
    4.1017   27.7934    8.7730 C   0  0  0  0  0  0  0  0  0  0  0  0
    5.0458   24.8387   13.5195 C   0  0  0  0  0  0  0  0  0  0  0  0
    6.0843   25.6347   14.0442 C   0  0  0  0  0  0  0  0  0  0  0  0
    5.9627   27.0036   14.2520 C   0  0  0  0  0  0  0  0  0  0  0  0
    7.0125   27.6726   14.9402 C   0  0  0  0  0  0  0  0  0  0  0  0
    7.2173   24.9495   14.4209 C   0  0  0  0  0  0  0  0  0  0  0  0
    8.1266   26.9448   15.3886 C   0  0  0  0  0  0  0  0  0  0  0  0
    8.2300   25.5883   15.0823 C   0  0  0  0  0  0  0  0  0  0  0  0
    3.5671   22.3316   11.8246 O   0  0  0  0  0  0  0  0  0  0  0  0
    2.9060   24.7915   12.7501 N   0  0  0  0  0  0  0  0  0  0  0  0
    2.8979   24.7537   15.2502 S   0  0  0  0  0  0  0  0  0  0  0  0
  1  2  1  0
  1 25  1  0
  2  3  1  0
  3  7  1  0
  4  5  1  0
  4  8  2  0
  4 24  1  0
  5 10  1  0
  5 23  2  0
  6 16  1  0
  6 24  2  3
  6 25  1  0
  7 25  1  0
  8  9  1  0
  8 12  1  0
  9 13  2  0
 10 11  2  0
 12 11  1  1
 12 14  1  0
 13 15  1  0
 14 15  2  0
 16 17  1  0
 17 18  2  0
 17 20  1  0
 18 19  1  0
 19 21  2  0
 20 22  2  0
 21 22  1  0
M  END
$$$$

     RDKit          3D

 12 13  0  0  0  0  0  0  0  0999 V2000
    1.8804   24.0771    8.6643 C   0  0  0  0  0  0  0  0  0  0  0  0
    1.8677   24.9337   14.2459 C   0  0  0  0  0  0  0  0  0  0  0  0
    1.6609   25.6743   15.4017 C   0  0  0  0  0  0  0  0  0  0  0  0
    2.6544   23.8808    9.9969 C   0  0  0  0  0  0  0  0  0  0  0  0
    2.4211   26.8061   15.6541 C   0  0  0  0  0  0  0  0  0  0  0  0
    2.7881   25.3281   13.3253 C   0  0  0  0  0  0  0  0  0  0  0  0
    2.9922   24.6008   12.0415 C   0  0  0  0  0  0  0  0  0  0  0  0
    3.3953   27.1763   14.7376 C   0  0  0  0  0  0  0  0  0  0  0  0
    3.5822   26.4512   13.5473 C   0  0  0  0  0  0  0  0  0  0  0  0
    4.0695   23.8106   11.7271 C   0  0  0  0  0  0  0  0  0  0  0  0
    2.1688   24.6263   11.0015 N   0  0  0  0  0  0  0  0  0  0  0  0
    3.8674   23.2246   10.4226 N   0  0  0  0  0  0  0  0  0  0  0  0
  1  4  1  0
  2  3  2  0
  2  6  1  0
  3  5  1  0
  4 11  2  0
  4 12  1  0
  5  8  2  0
  6  7  1  0
  6  9  2  0
  7 10  1  0
  7 11  1  0
  8  9  1  0
 10 12  1  0
M  END
$$$$

     RDKit          3D

 16 17  0  0  0  0  0  0  0  0999 V2000
    1.5192   27.3927   14.8595 C   0  0  0  0  0  0  0  0  0  0  0  0
    1.7341   26.5272   13.7973 C   0  0  0  0  0  0  0  0  0  0  0  0
    2.4470   27.5089   15.8798 C   0  0  0  0  0  0  0  0  0  0  0  0
    2.7069   24.3061   10.4806 C   0  0  0  0  0  0  0  0  0  0  0  0
    3.1111   24.8357   12.6652 C   0  0  0  0  0  0  0  0  0  0  0  0
    2.9213   25.7842   13.7534 C   0  0  0  0  0  0  0  0  0  0  0  0
    3.1737   23.1738    8.4576 C   0  0  0  0  0  0  0  0  0  0  0  0
    3.4877   23.1548   10.6070 C   0  0  0  0  0  0  0  0  0  0  0  0
    3.6402   26.7870   15.8096 C   0  0  0  0  0  0  0  0  0  0  0  0
    3.8016   23.6065   12.8657 C   0  0  0  0  0  0  0  0  0  0  0  0
    3.8738   25.9043   14.7764 C   0  0  0  0  0  0  0  0  0  0  0  0
    2.5379   25.1519   11.5009 N   0  0  0  0  0  0  0  0  0  0  0  0
    3.7198   22.4133    9.5233 N   0  0  0  0  0  0  0  0  0  0  0  0
    4.0300   22.8028   11.8150 N   0  0  0  0  0  0  0  0  0  0  0  0
    4.2153   23.0596   14.0709 N   0  0  0  0  0  0  0  0  0  0  0  0
    1.9710   24.4774    8.9294 Cl  0  0  0  0  0  0  0  0  0  0  0  0
  1  2  2  0
  1  3  1  0
  2  6  1  0
  3  9  2  0
  4  8  1  0
  4 12  1  0
  4 16  1  0
  5  6  1  0
  5 10  1  0
  5 12  2  0
  6 11  2  0
  7 13  1  0
  8 13  1  0
  8 14  2  0
  9 11  1  0
 10 14  1  0
 10 15  2  0
M  END
$$$$

     RDKit          3D

 20 22  0  0  0  0  0  0  0  0999 V2000
    1.4560   25.4568   16.1892 C   0  0  0  0  0  0  0  0  0  0  0  0
    2.2290   24.9099   13.0188 C   0  0  0  0  0  0  0  0  0  0  0  0
    2.9299   24.6658   14.2915 C   0  0  1  0  0  0  0  0  0  0  0  0
    2.9294   25.5156   11.8514 C   0  0  0  0  0  0  0  0  0  0  0  0
    3.0794   26.8911   11.7363 C   0  0  0  0  0  0  0  0  0  0  0  0
    3.3851   23.2525   10.7751 C   0  0  0  0  0  0  0  0  0  0  0  0
    3.4269   24.6815   10.7738 C   0  0  0  0  0  0  0  0  0  0  0  0
    3.6291   27.4782   10.6503 C   0  0  0  0  0  0  0  0  0  0  0  0
    4.0112   22.5488    9.7530 C   0  0  0  0  0  0  0  0  0  0  0  0
    4.0461   25.3615    9.6490 C   0  0  0  0  0  0  0  0  0  0  0  0
    4.3659   24.4109   14.1460 C   0  0  0  0  0  0  0  0  0  0  0  0
    4.6447   23.2113    8.7145 C   0  0  0  0  0  0  0  0  0  0  0  0
    4.6305   24.5968    8.6215 C   0  0  0  0  0  0  0  0  0  0  0  0
    4.8115   23.1094   13.7465 C   0  0  0  0  0  0  0  0  0  0  0  0
    5.3005   25.4089   14.3957 C   0  0  0  0  0  0  0  0  0  0  0  0
    6.1566   22.8593   13.6309 C   0  0  0  0  0  0  0  0  0  0  0  0
    6.6470   25.1240   14.2573 C   0  0  0  0  0  0  0  0  0  0  0  0
    7.0478   23.8734   13.8739 C   0  0  0  0  0  0  0  0  0  0  0  0
    2.4151   24.7921   15.5432 N   0  0  0  0  0  0  0  0  0  0  0  0
    4.0776   26.7341    9.6130 N   0  0  0  0  0  0  0  0  0  0  0  0
  1 19  2  0
  3  2  1  6
  2  4  1  0
  3 11  1  0
  3 19  1  0
  4  5  2  0
  4  7  1  0
  5  8  1  0
  6  7  1  0
  6  9  1  0
  7 10  2  0
  8 20  2  0
  9 12  2  0
 10 13  1  0
 10 20  1  0
 11 14  2  0
 11 15  1  0
 12 13  1  0
 14 16  1  0
 15 17  2  0
 16 18  2  0
 17 18  1  0
M  END
$$$$

     RDKit          3D

 14 15  0  0  0  0  0  0  0  0999 V2000
    2.9035   24.4690   10.4241 C   0  0  0  0  0  0  0  0  0  0  0  0
    2.9235   25.8705   15.0242 C   0  0  0  0  0  0  0  0  0  0  0  0
    3.4030   24.9772   14.0324 C   0  0  0  0  0  0  0  0  0  0  0  0
    3.2747   25.2198   12.6022 C   0  0  0  0  0  0  0  0  0  0  0  0
    3.1873   25.5894   16.3766 C   0  0  0  0  0  0  0  0  0  0  0  0
    3.2491   25.7109    9.9006 C   0  0  0  0  0  0  0  0  0  0  0  0
    3.6348   26.7256   10.7778 C   0  0  0  0  0  0  0  0  0  0  0  0
    3.7301   22.9192    8.5901 C   0  0  0  0  0  0  0  0  0  0  0  0
    3.8871   24.4124   16.7046 C   0  0  0  0  0  0  0  0  0  0  0  0
    3.6743   26.4314   12.1274 C   0  0  0  0  0  0  0  0  0  0  0  0
    4.1161   23.8464   14.4401 C   0  0  0  0  0  0  0  0  0  0  0  0
    2.6671   23.4002    9.5203 N   0  0  0  0  0  0  0  0  0  0  0  0
    2.8762   24.2298   11.7551 N   0  0  0  0  0  0  0  0  0  0  0  0
    4.3376   23.5855   15.7199 N   0  0  0  0  0  0  0  0  0  0  0  0
  1  6  2  0
  1 12  1  0
  1 13  1  0
  2  3  2  0
  2  5  1  0
  3  4  1  0
  3 11  1  0
  4 10  1  0
  4 13  2  0
  5  9  2  0
  6  7  1  0
  7 10  2  0
  8 12  1  0
  9 14  1  0
 11 14  2  0
M  END
$$$$

     RDKit          3D

 12 13  0  0  0  0  0  0  0  0999 V2000
    1.9747   25.1852   15.1209 C   0  0  0  0  0  0  0  0  0  0  0  0
    2.4067   24.1698    9.1294 C   0  0  0  0  0  0  0  0  0  0  0  0
    2.2976   24.2310   11.6480 C   0  0  0  0  0  0  0  0  0  0  0  0
    2.2754   26.6698   15.0917 C   0  0  0  0  0  0  0  0  0  0  0  0
    2.6155   24.8643   10.4474 C   0  0  0  0  0  0  0  0  0  0  0  0
    2.5010   24.9038   12.8641 C   0  0  0  0  0  0  0  0  0  0  0  0
    3.0181   26.1966   12.8646 C   0  0  0  0  0  0  0  0  0  0  0  0
    3.1623   26.1140   10.4536 C   0  0  0  0  0  0  0  0  0  0  0  0
    3.3552   26.8052   11.6340 C   0  0  0  0  0  0  0  0  0  0  0  0
    2.1507   24.3182   14.0047 O   0  0  0  0  0  0  0  0  0  0  0  0
    3.0338   22.9166    9.0155 N   0  0  0  0  0  0  0  0  0  0  0  0
    3.1828   26.9232   14.0212 N   0  0  0  0  0  0  0  0  0  0  0  0
  1  4  1  0
  1 10  1  0
  2  5  1  0
  2 11  1  0
  3  5  1  0
  3  6  1  0
  4 12  1  0
  5  8  2  0
  6  7  2  0
  6 10  1  0
  7  9  1  0
  7 12  1  0
  8  9  1  0
M  END
$$$$

     RDKit          3D

 16 17  0  0  0  0  0  0  0  0999 V2000
    2.3579   26.7118   15.4185 C   0  0  0  0  0  0  0  0  0  0  0  0
    2.5458   25.3892   12.9112 C   0  0  0  0  0  0  0  0  0  0  0  0
    2.6622   24.2662    9.4853 C   0  0  0  0  0  0  0  0  0  0  0  0
    2.8100   25.1290   11.4920 C   0  0  0  0  0  0  0  0  0  0  0  0
    2.7741   25.3552   15.2972 C   0  0  0  0  0  0  0  0  0  0  0  0
    3.1972   24.9727   14.0107 C   0  0  0  0  0  0  0  0  0  0  0  0
    3.4439   25.4100    9.4058 C   0  0  0  0  0  0  0  0  0  0  0  0
    4.5842   22.9616   13.7225 C   0  0  0  0  0  0  0  0  0  0  0  0
    4.4696   24.3386   13.9473 C   0  0  0  0  0  0  0  0  0  0  0  0
    5.7744   22.3652   13.5880 C   0  0  0  0  0  0  0  0  0  0  0  0
    5.6630   25.0727   14.0079 C   0  0  0  0  0  0  0  0  0  0  0  0
    6.8960   23.0880   13.6490 C   0  0  0  0  0  0  0  0  0  0  0  0
    6.9091   24.4413   13.8800 C   0  0  0  0  0  0  0  0  0  0  0  0
    2.2555   24.0998   10.7741 N   0  0  0  0  0  0  0  0  0  0  0  0
    2.4621   23.3407    8.5244 N   0  0  0  0  0  0  0  0  0  0  0  0
    3.5147   25.9131   10.6782 N   0  0  0  0  0  0  0  0  0  0  0  0
  1  5  1  0
  2  4  1  0
  2  6  2  3
  3  7  1  0
  3 14  1  0
  3 15  2  0
  4 14  2  0
  4 16  1  0
  5  6  1  0
  6  9  1  0
  7 16  1  0
  8  9  2  0
  8 10  1  0
  9 11  1  0
 10 12  2  0
 11 13  2  0
 12 13  1  0
M  END
$$$$

     RDKit          3D

 16 18  0  0  0  0  0  0  0  0999 V2000
    2.2620   23.8307   10.3553 C   0  0  0  0  0  0  0  0  0  0  0  0
    2.5146   24.6385   11.4961 C   0  0  0  0  0  0  0  0  0  0  0  0
    2.7273   24.2188    9.1280 C   0  0  0  0  0  0  0  0  0  0  0  0
    2.8384   25.5561   13.4085 C   0  0  0  0  0  0  0  0  0  0  0  0
    2.8752   27.0225   15.3980 C   0  0  0  0  0  0  0  0  0  0  0  0
    3.1355   25.8592   11.3172 C   0  0  0  0  0  0  0  0  0  0  0  0
    2.9711   25.7419   14.8678 C   0  0  0  0  0  0  0  0  0  0  0  0
    3.0586   27.1635   16.7427 C   0  0  0  0  0  0  0  0  0  0  0  0
    3.3276   25.4520    8.9268 C   0  0  0  0  0  0  0  0  0  0  0  0
    3.4415   24.9199   16.9762 C   0  0  0  0  0  0  0  0  0  0  0  0
    3.4996   26.2710   10.0362 C   0  0  0  0  0  0  0  0  0  0  0  0
    4.1096   27.4090    9.9444 O   0  0  0  0  0  0  0  0  0  0  0  0
    2.3052   24.4947   12.8466 N   0  0  0  0  0  0  0  0  0  0  0  0
    3.2275   24.6888   15.6600 N   0  0  0  0  0  0  0  0  0  0  0  0
    3.3784   26.1335   17.5105 N   0  0  0  0  0  0  0  0  0  0  0  0
    3.3488   26.3940   12.5260 N   0  0  0  0  0  0  0  0  0  0  0  0
  1  2  2  0
  1  3  1  0
  2  6  1  0
  2 13  1  0
  3  9  2  0
  4  7  1  0
  4 13  2  0
  4 16  1  0
  5  7  2  0
  5  8  1  0
  6 11  2  0
  6 16  1  0
  7 14  1  0
  8 15  2  0
  9 11  1  0
 10 14  2  0
 10 15  1  0
 11 12  1  0
M  END
$$$$

     RDKit          3D

 17 19  0  0  0  0  0  0  0  0999 V2000
    2.0188   24.3987   12.6221 C   0  0  0  0  0  0  0  0  0  0  0  0
    2.2453   26.1793   14.3498 C   0  0  0  0  0  0  0  0  0  0  0  0
    2.6328   24.8992   13.8903 C   0  0  0  0  0  0  0  0  0  0  0  0
    2.6772   26.6415   15.5785 C   0  0  0  0  0  0  0  0  0  0  0  0
    3.1487   26.8153   11.1031 C   0  0  0  0  0  0  0  0  0  0  0  0
    3.3263   23.3139   10.8414 C   0  0  0  0  0  0  0  0  0  0  0  0
    3.2240   25.5002   10.7601 C   0  0  0  0  0  0  0  0  0  0  0  0
    3.4239   24.1237   14.6893 C   0  0  0  0  0  0  0  0  0  0  0  0
    3.5031   25.8447   16.3532 C   0  0  0  0  0  0  0  0  0  0  0  0
    3.6455   27.6931   10.1655 C   0  0  0  0  0  0  0  0  0  0  0  0
    3.7372   23.6849    9.5041 C   0  0  0  0  0  0  0  0  0  0  0  0
    3.8681   24.5763   15.9263 C   0  0  0  0  0  0  0  0  0  0  0  0
    4.1547   27.2818    9.0081 C   0  0  0  0  0  0  0  0  0  0  0  0
    3.6548   22.2965   11.4435 O   0  0  0  0  0  0  0  0  0  0  0  0
    2.8411   24.4265   11.4713 N   0  0  0  0  0  0  0  0  0  0  0  0
    3.7451   25.0959    9.6009 N   0  0  0  0  0  0  0  0  0  0  0  0
    4.1691   25.9474    8.6844 N   0  0  0  0  0  0  0  0  0  0  0  0
  1  3  1  0
  1 15  1  0
  2  3  2  0
  2  4  1  0
  3  8  1  0
  4  9  2  0
  5  7  2  0
  5 10  1  0
  6 11  1  0
  6 14  2  0
  6 15  1  0
  7 15  1  0
  7 16  1  0
  8 12  2  0
  9 12  1  0
 10 13  2  0
 11 16  1  0
 13 17  1  0
 16 17  1  0
M  END
$$$$

     RDKit          3D

 13 14  0  0  0  0  0  0  0  0999 V2000
    1.6648   24.3095    8.6076 C   0  0  0  0  0  0  0  0  0  0  0  0
    2.1341   24.9488   14.1868 C   0  0  0  0  0  0  0  0  0  0  0  0
    1.9331   25.7557   15.3119 C   0  0  0  0  0  0  0  0  0  0  0  0
    2.6171   24.0894    9.7242 C   0  0  0  0  0  0  0  0  0  0  0  0
    2.4486   24.8064   10.8993 C   0  0  0  0  0  0  0  0  0  0  0  0
    2.7182   26.8839   15.4418 C   0  0  0  0  0  0  0  0  0  0  0  0
    3.0905   25.2906   13.2240 C   0  0  0  0  0  0  0  0  0  0  0  0
    3.2308   24.5082   12.0278 C   0  0  0  0  0  0  0  0  0  0  0  0
    3.6050   23.1154    9.6704 C   0  0  0  0  0  0  0  0  0  0  0  0
    3.8803   26.4139   13.3923 C   0  0  0  0  0  0  0  0  0  0  0  0
    3.6853   27.1940   14.5191 C   0  0  0  0  0  0  0  0  0  0  0  0
    4.1862   23.5089   11.8860 C   0  0  0  0  0  0  0  0  0  0  0  0
    4.3772   22.8302   10.7442 N   0  0  0  0  0  0  0  0  0  0  0  0
  1  4  1  0
  2  3  2  0
  2  7  1  0
  3  6  1  0
  4  5  2  0
  4  9  1  0
  5  8  1  0
  6 11  2  0
  7  8  1  0
  7 10  2  0
  8 12  2  0
  9 13  2  0
 10 11  1  0
 12 13  1  0
M  END
$$$$

     RDKit          3D

 16 18  0  0  0  0  0  0  0  0999 V2000
    2.5476   26.9044   13.5658 C   0  0  0  0  0  0  0  0  0  0  0  0
    2.4968   27.1819   14.9272 C   0  0  0  0  0  0  0  0  0  0  0  0
    3.1350   25.6914   13.1550 C   0  0  0  0  0  0  0  0  0  0  0  0
    2.9916   25.9494    9.5446 C   0  0  0  0  0  0  0  0  0  0  0  0
    2.9406   26.2389   10.7985 C   0  0  0  0  0  0  0  0  0  0  0  0
    3.0535   26.3282   15.8829 C   0  0  0  0  0  0  0  0  0  0  0  0
    3.2698   25.3669   11.7654 C   0  0  0  0  0  0  0  0  0  0  0  0
    3.4181   24.7678    9.1420 C   0  0  0  0  0  0  0  0  0  0  0  0
    3.6045   24.7876   14.1189 C   0  0  0  0  0  0  0  0  0  0  0  0
    3.5824   25.1144   15.4748 C   0  0  0  0  0  0  0  0  0  0  0  0
    3.8508   23.8200   10.0320 C   0  0  0  0  0  0  0  0  0  0  0  0
    3.7206   24.1019   11.3790 C   0  0  0  0  0  0  0  0  0  0  0  0
    4.0971   23.1835   12.3419 C   0  0  0  0  0  0  0  0  0  0  0  0
    4.0158   23.5020   13.6933 C   0  0  0  0  0  0  0  0  0  0  0  0
    4.1594   22.5051   14.6205 O   0  0  0  0  0  0  0  0  0  0  0  0
    4.5189   22.0395   11.9040 O   0  0  0  0  0  0  0  0  0  0  0  0
  1  2  2  0
  1  3  1  0
  2  6  1  0
  3  7  2  0
  3  9  1  0
  4  5  2  0
  4  8  1  0
  5  7  1  0
  6 10  2  0
  7 12  1  0
  8 11  2  0
  9 10  1  0
  9 14  2  0
 11 12  1  0
 12 13  2  0
 13 14  1  0
 13 16  1  0
 14 15  1  0
M  END
$$$$

     RDKit          3D

 12 13  0  0  0  0  0  0  0  0999 V2000
    2.5719   24.2035   10.7355 C   0  0  0  0  0  0  0  0  0  0  0  0
    2.4322   25.0887   11.8656 C   0  0  0  0  0  0  0  0  0  0  0  0
    3.0672   25.7081   14.1618 C   0  0  0  0  0  0  0  0  0  0  0  0
    3.1707   24.8476   13.0037 C   0  0  0  0  0  0  0  0  0  0  0  0
    3.3321   26.6781   16.0475 C   0  0  0  0  0  0  0  0  0  0  0  0
    4.1087   22.9414   11.9238 C   0  0  0  0  0  0  0  0  0  0  0  0
    4.0046   23.7418   13.0555 C   0  0  0  0  0  0  0  0  0  0  0  0
    1.8972   24.3912    9.6340 O   0  0  0  0  0  0  0  0  0  0  0  0
    2.3411   26.8256   14.1964 N   0  0  0  0  0  0  0  0  0  0  0  0
    2.4521   27.3828   15.3696 N   0  0  0  0  0  0  0  0  0  0  0  0
    3.3842   23.1636   10.8286 N   0  0  0  0  0  0  0  0  0  0  0  0
    3.7127   25.6007   15.3101 N   0  0  0  0  0  0  0  0  0  0  0  0
  1  2  1  0
  1  8  2  0
  1 11  1  0
  2  4  1  0
  3  4  2  3
  3  9  1  0
  3 12  1  0
  4  7  1  0
  5 10  1  0
  5 12  1  0
  6  7  1  0
  6 11  2  0
  9 10  1  0
M  END
$$$$

     RDKit          3D

 12 12  0  0  0  0  0  0  0  0999 V2000
    2.6360   26.1581   14.1699 C   0  0  0  0  0  0  0  0  0  0  0  0
    2.7172   24.8103   14.0016 C   0  0  0  0  0  0  0  0  0  0  0  0
    2.8372   26.9958   13.0621 C   0  0  0  0  0  0  0  0  0  0  0  0
    3.1453   24.2826   12.8063 C   0  0  0  0  0  0  0  0  0  0  0  0
    3.3978   25.1255   11.7199 C   0  0  0  0  0  0  0  0  0  0  0  0
    3.1804   26.4718   11.8391 C   0  0  0  0  0  0  0  0  0  0  0  0
    3.3348   27.2302   10.6927 C   0  0  0  0  0  0  0  0  0  0  0  0
    3.8495   23.1733   10.3859 C   0  0  0  0  0  0  0  0  0  0  0  0
    3.9179   24.6055   10.4295 C   0  0  0  0  0  0  0  0  0  0  0  0
    4.0826   22.2846   11.5485 O   0  0  0  0  0  0  0  0  0  0  0  0
    2.6629   23.9826   15.3006 Cl  0  0  0  0  0  0  0  0  0  0  0  0
    3.5909   25.7421    9.3252 P   0  0  0  0  0  0  0  0  0  0  0  0
  1  2  2  0
  1  3  1  0
  2  4  1  0
  2 11  1  0
  3  6  1  0
  4  5  1  0
  5  6  2  0
  5  9  1  0
  6  7  1  0
  7 12  1  0
  8  9  1  0
  8 10  1  0
M  END
$$$$

     RDKit          3D

 13 14  0  0  0  0  0  0  0  0999 V2000
    2.3602   26.3262   15.6092 C   0  0  0  0  0  0  0  0  0  0  0  0
    2.4589   24.9401   10.7421 C   0  0  0  0  0  0  0  0  0  0  0  0
    2.4951   24.9700   15.4565 C   0  0  0  0  0  0  0  0  0  0  0  0
    2.4959   27.1672   14.5170 C   0  0  0  0  0  0  0  0  0  0  0  0
    2.7207   24.3892    9.5325 C   0  0  0  0  0  0  0  0  0  0  0  0
    2.7187   24.4438   14.2301 C   0  0  0  0  0  0  0  0  0  0  0  0
    2.9060   25.2604   13.1123 C   0  0  0  0  0  0  0  0  0  0  0  0
    2.7790   26.6446   13.2508 C   0  0  0  0  0  0  0  0  0  0  0  0
    3.2106   24.6322   11.8440 C   0  0  0  0  0  0  0  0  0  0  0  0
    3.8012   22.6825    8.1143 C   0  0  0  0  0  0  0  0  0  0  0  0
    3.6781   23.3891    9.4278 C   0  0  0  0  0  0  0  0  0  0  0  0
    4.2434   23.6841   11.7224 C   0  0  0  0  0  0  0  0  0  0  0  0
    4.4792   23.0693   10.5278 C   0  0  0  0  0  0  0  0  0  0  0  0
  1  3  2  0
  1  4  1  0
  2  5  2  0
  2  9  1  0
  3  6  1  0
  4  8  2  0
  5 11  1  0
  6  7  2  0
  7  8  1  0
  7  9  1  0
  9 12  2  0
 10 11  1  0
 11 13  2  0
 12 13  1  0
M  END
$$$$

     RDKit          3D

 15 16  0  0  0  0  0  0  0  0999 V2000
    2.5162   23.9729    9.3902 C   0  0  0  0  0  0  0  0  0  0  0  0
    2.8771   24.8655   10.5594 C   0  0  0  0  0  0  0  0  0  0  0  0
    3.0249   24.4042   11.8661 C   0  0  0  0  0  0  0  0  0  0  0  0
    3.1030   26.1591   10.2080 C   0  0  0  0  0  0  0  0  0  0  0  0
    3.3771   25.3449   12.8454 C   0  0  0  0  0  0  0  0  0  0  0  0
    3.2755   25.7674   15.2736 C   0  0  0  0  0  0  0  0  0  0  0  0
    3.6351   24.9432   14.2192 C   0  0  0  0  0  0  0  0  0  0  0  0
    3.5186   25.3842   16.5870 C   0  0  0  0  0  0  0  0  0  0  0  0
    3.5381   26.6703   12.4720 C   0  0  0  0  0  0  0  0  0  0  0  0
    3.4145   27.0553   11.1820 C   0  0  0  0  0  0  0  0  0  0  0  0
    3.7923   23.3476    8.8568 C   0  0  0  0  0  0  0  0  0  0  0  0
    4.3474   23.7644   14.5434 C   0  0  0  0  0  0  0  0  0  0  0  0
    4.1675   24.1691   16.8018 C   0  0  0  0  0  0  0  0  0  0  0  0
    3.3565   22.2081    8.0719 N   0  0  0  0  0  0  0  0  0  0  0  0
    4.5957   23.4003   15.7892 N   0  0  0  0  0  0  0  0  0  0  0  0
  1  2  1  0
  1 11  1  0
  2  3  2  0
  2  4  1  0
  3  5  1  0
  4 10  2  0
  5  7  1  0
  5  9  2  0
  6  7  2  0
  6  8  1  0
  7 12  1  0
  8 13  2  0
  9 10  1  0
 11 14  1  0
 12 15  2  0
 13 15  1  0
M  END
$$$$

     RDKit          3D

 14 16  0  0  0  0  0  0  0  0999 V2000
    2.0745   24.6765   14.8139 C   0  0  0  0  0  0  0  0  0  0  0  0
    2.1038   26.0239   15.0926 C   0  0  0  0  0  0  0  0  0  0  0  0
    2.4702   26.8708   14.1063 C   0  0  0  0  0  0  0  0  0  0  0  0
    2.6638   24.9715   12.7261 C   0  0  1  0  0  0  0  0  0  0  0  0
    2.7246   26.3262   12.8587 C   0  0  0  0  0  0  0  0  0  0  0  0
    3.1674   23.1392   11.7075 C   0  0  0  0  0  0  0  0  0  0  0  0
    2.9796   24.3941   11.4343 C   0  0  1  0  0  0  0  0  0  0  0  0
    2.9813   24.9946   10.1545 C   0  0  2  0  0  0  0  0  0  0  0  0
    2.9823   27.0758   11.8311 C   0  0  0  0  0  0  0  0  0  0  0  0
    3.2092   24.0910    9.0562 C   0  0  0  0  0  0  0  0  0  0  0  0
    3.7645   22.9163    9.3748 C   0  0  0  0  0  0  0  0  0  0  0  0
    2.4603   24.1322   13.7162 O   0  0  0  0  0  0  0  0  0  0  0  0
    3.6043   22.6401   10.6315 N   0  0  0  0  0  0  0  0  0  0  0  0
    3.0804   26.7464   10.3276 S   0  0  0  0  0  0  0  0  0  0  0  0
  1  2  2  0
  1 12  1  0
  2  3  1  0
  3  5  1  0
  4  5  1  0
  4  7  1  0
  4 12  1  1
  5  9  2  0
  7  6  1  6
  6 13  1  0
  7  8  1  0
  8 10  1  6
  8 14  1  0
  9 14  1  0
 10 11  1  0
 11 13  1  0
M  END
$$$$

     RDKit          3D

 16 18  0  0  0  0  0  0  0  0999 V2000
    2.1346   24.8415    9.4241 C   0  0  0  0  0  0  0  0  0  0  0  0
    2.0486   27.1515   13.4215 C   0  0  0  0  0  0  0  0  0  0  0  0
    2.6577   26.5386   12.1478 C   0  0  0  0  0  0  0  0  0  0  0  0
    2.5678   26.6127   14.7153 C   0  0  0  0  0  0  0  0  0  0  0  0
    2.5727   27.3407   15.9105 C   0  0  0  0  0  0  0  0  0  0  0  0
    2.7334   24.4472   10.6242 C   0  0  2  0  0  0  0  0  0  0  0  0
    2.6728   25.1736   11.8964 C   0  0  1  0  0  0  0  0  0  0  0  0
    3.0051   25.2921   14.7294 C   0  0  0  0  0  0  0  0  0  0  0  0
    3.1637   26.7962   17.0614 C   0  0  0  0  0  0  0  0  0  0  0  0
    3.4160   23.1105    8.9212 C   0  0  0  0  0  0  0  0  0  0  0  0
    3.5052   24.7290   15.8960 C   0  0  0  0  0  0  0  0  0  0  0  0
    3.5985   25.4643   17.0380 C   0  0  0  0  0  0  0  0  0  0  0  0
    2.4862   23.9679    8.4246 N   0  0  0  0  0  0  0  0  0  0  0  0
    3.4280   23.3977   10.2234 N   0  0  0  0  0  0  0  0  0  0  0  0
    4.0312   22.1421    8.1525 N   0  0  0  0  0  0  0  0  0  0  0  0
    2.9455   24.2761   13.3353 S   0  0  0  0  0  0  0  0  0  0  0  0
  6  1  1  6
  1 13  1  0
  2  3  1  0
  2  4  1  0
  7  3  1  6
  4  5  2  0
  4  8  1  0
  5  9  1  0
  6  7  1  0
  6 14  1  0
  7 16  1  0
  8 11  2  0
  8 16  1  0
  9 12  2  0
 10 13  1  0
 10 14  1  0
 10 15  2  0
 11 12  1  0
M  END
$$$$

     RDKit          3D

 15 17  0  0  0  0  0  0  0  0999 V2000
    2.3808   24.5009   12.2660 C   0  0  0  0  0  0  0  0  0  0  0  0
    2.4746   27.0795   14.9834 C   0  0  0  0  0  0  0  0  0  0  0  0
    2.6644   25.8208   14.3799 C   0  0  0  0  0  0  0  0  0  0  0  0
    2.7220   27.1857   16.3359 C   0  0  0  0  0  0  0  0  0  0  0  0
    2.9539   24.8446   10.9523 C   0  0  0  0  0  0  0  0  0  0  0  0
    3.0706   24.7295   15.1619 C   0  0  0  0  0  0  0  0  0  0  0  0
    2.9353   26.7372   12.1651 C   0  0  0  0  0  0  0  0  0  0  0  0
    3.1631   24.0410    9.8619 C   0  0  0  0  0  0  0  0  0  0  0  0
    3.3220   24.9454   16.5220 C   0  0  0  0  0  0  0  0  0  0  0  0
    3.2818   26.2022   10.9108 C   0  0  0  0  0  0  0  0  0  0  0  0
    3.6684   24.6080    8.7350 C   0  0  0  0  0  0  0  0  0  0  0  0
    3.8646   26.7684    9.7643 C   0  0  0  0  0  0  0  0  0  0  0  0
    4.0146   25.9289    8.6489 C   0  0  0  0  0  0  0  0  0  0  0  0
    2.4511   25.6675   13.0086 N   0  0  0  0  0  0  0  0  0  0  0  0
    3.1553   26.1537   17.1055 N   0  0  0  0  0  0  0  0  0  0  0  0
  1  5  1  0
  1 14  1  0
  2  3  2  0
  2  4  1  0
  3  6  1  0
  3 14  1  0
  4 15  2  0
  5  8  2  0
  5 10  1  0
  6  9  2  0
  7 10  1  0
  7 14  1  0
  8 11  1  0
  9 15  1  0
 10 12  2  0
 11 13  2  0
 12 13  1  0
M  END
$$$$

     RDKit          3D

 14 15  0  0  0  0  0  0  0  0999 V2000
    2.0416   26.3135   13.7688 C   0  0  0  0  0  0  0  0  0  0  0  0
    2.3032   24.9332   13.8335 C   0  0  0  0  0  0  0  0  0  0  0  0
    2.3015   27.0866   14.8756 C   0  0  0  0  0  0  0  0  0  0  0  0
    2.8752   24.2982   11.5210 C   0  0  0  0  0  0  0  0  0  0  0  0
    2.6960   25.3449   10.6448 C   0  0  0  0  0  0  0  0  0  0  0  0
    2.7922   26.4761   16.0174 C   0  0  0  0  0  0  0  0  0  0  0  0
    2.9749   25.1423   16.0036 C   0  0  0  0  0  0  0  0  0  0  0  0
    3.4085   25.3991    9.4529 C   0  0  0  0  0  0  0  0  0  0  0  0
    3.7326   23.2739   11.1961 C   0  0  0  0  0  0  0  0  0  0  0  0
    4.2831   24.3830    9.1170 C   0  0  0  0  0  0  0  0  0  0  0  0
    4.4547   23.3365   10.0186 C   0  0  0  0  0  0  0  0  0  0  0  0
    3.9131   22.2179   12.0644 O   0  0  0  0  0  0  0  0  0  0  0  0
    2.0372   24.1746   12.6701 N   0  0  0  0  0  0  0  0  0  0  0  0
    2.6948   24.3521   14.9616 N   0  0  0  0  0  0  0  0  0  0  0  0
  1  2  2  0
  1  3  1  0
  2 13  1  0
  2 14  1  0
  3  6  2  0
  4  5  2  0
  4  9  1  0
  4 13  1  0
  5  8  1  0
  6  7  1  0
  7 14  2  0
  8 10  2  0
  9 11  2  0
  9 12  1  0
 10 11  1  0
M  END
$$$$

     RDKit          3D

 14 14  0  0  0  0  0  0  0  0999 V2000
    1.7109   24.2606    8.6823 C   0  0  0  0  0  0  0  0  0  0  0  0
    2.3703   25.0062   15.2707 C   0  0  0  0  0  0  0  0  0  0  0  0
    2.4269   24.7809   11.6453 C   0  0  0  0  0  0  0  0  0  0  0  0
    2.7125   25.3179   13.9452 C   0  0  0  0  0  0  0  0  0  0  0  0
    2.7567   25.9024   16.2767 C   0  0  0  0  0  0  0  0  0  0  0  0
    3.1437   23.8880   10.7818 C   0  0  0  0  0  0  0  0  0  0  0  0
    3.1463   24.1638    9.2685 C   0  0  0  0  0  0  0  0  0  0  0  0
    3.4242   26.4628   13.6535 C   0  0  0  0  0  0  0  0  0  0  0  0
    3.5647   26.9537   15.9720 C   0  0  0  0  0  0  0  0  0  0  0  0
    3.8598   23.0037    8.5604 C   0  0  0  0  0  0  0  0  0  0  0  0
    3.8519   25.5017    9.0701 C   0  0  0  0  0  0  0  0  0  0  0  0
    3.9030   27.2344   14.6895 C   0  0  0  0  0  0  0  0  0  0  0  0
    3.7792   22.9044   11.2431 O   0  0  0  0  0  0  0  0  0  0  0  0
    2.3107   24.4461   12.9527 N   0  0  0  0  0  0  0  0  0  0  0  0
  1  7  1  0
  2  4  2  0
  2  5  1  0
  3  6  1  0
  3 14  1  0
  4  8  1  0
  4 14  1  0
  5  9  2  0
  6  7  1  0
  6 13  2  0
  7 10  1  0
  7 11  1  0
  8 12  2  0
  9 12  1  0
M  END
$$$$

     RDKit          3D

 15 17  0  0  0  0  0  0  0  0999 V2000
    2.0188   26.7149   14.6167 C   0  0  0  0  0  0  0  0  0  0  0  0
    2.3382   26.4439   13.3342 C   0  0  0  0  0  0  0  0  0  0  0  0
    2.4542   25.8890   15.6159 C   0  0  0  0  0  0  0  0  0  0  0  0
    3.0414   25.3190   12.9928 C   0  0  0  0  0  0  0  0  0  0  0  0
    3.1215   25.9042   10.6296 C   0  0  0  0  0  0  0  0  0  0  0  0
    3.1876   24.7554   15.3457 C   0  0  0  0  0  0  0  0  0  0  0  0
    3.3686   25.0318   11.6404 C   0  0  0  0  0  0  0  0  0  0  0  0
    3.3479   25.6329    9.3734 C   0  0  0  0  0  0  0  0  0  0  0  0
    3.4675   24.4516   14.0269 C   0  0  0  0  0  0  0  0  0  0  0  0
    3.8896   24.4839    9.0896 C   0  0  0  0  0  0  0  0  0  0  0  0
    3.9514   23.8383   11.3079 C   0  0  0  0  0  0  0  0  0  0  0  0
    4.3471   22.9413   12.3298 C   0  0  0  0  0  0  0  0  0  0  0  0
    4.1713   23.2843   13.6632 C   0  0  0  0  0  0  0  0  0  0  0  0
    4.1746   23.5725    9.9842 C   0  0  0  0  0  0  0  0  0  0  0  0
    4.6015   22.4708   14.6283 O   0  0  0  0  0  0  0  0  0  0  0  0
  1  2  2  0
  1  3  1  0
  2  4  1  0
  3  6  2  0
  4  7  2  0
  4  9  1  0
  5  7  1  0
  5  8  2  0
  6  9  1  0
  7 11  1  0
  8 10  1  0
  9 13  2  0
 10 14  2  0
 11 12  2  0
 11 14  1  0
 12 13  1  0
 13 15  1  0
M  END
$$$$

     RDKit          3D

 16 18  0  0  0  0  0  0  0  0999 V2000
    1.8657   27.3967   14.8328 C   0  0  0  0  0  0  0  0  0  0  0  0
    2.0630   26.6971   13.6546 C   0  0  0  0  0  0  0  0  0  0  0  0
    2.5768   23.5687    9.1756 C   0  0  0  0  0  0  0  0  0  0  0  0
    2.4558   26.9256   16.0045 C   0  0  0  0  0  0  0  0  0  0  0  0
    2.8148   25.5704   13.6629 C   0  0  0  0  0  0  0  0  0  0  0  0
    3.1304   23.6998   10.5654 C   0  0  0  0  0  0  0  0  0  0  0  0
    3.0874   24.6643   12.6378 C   0  0  0  0  0  0  0  0  0  0  0  0
    3.3123   25.8281   16.0058 C   0  0  0  0  0  0  0  0  0  0  0  0
    3.4731   25.1496   14.8078 C   0  0  0  0  0  0  0  0  0  0  0  0
    4.0516   23.8239   13.1297 C   0  0  0  0  0  0  0  0  0  0  0  0
    4.1660   22.8854   10.9831 C   0  0  0  0  0  0  0  0  0  0  0  0
    4.6445   22.8899   12.2726 C   0  0  0  0  0  0  0  0  0  0  0  0
    1.3615   23.7556    9.0340 O   0  0  0  0  0  0  0  0  0  0  0  0
    3.4075   23.3075    8.2671 O   0  0  0  0  0  0  0  0  0  0  0  0
    2.5948   24.5824   11.3863 N   0  0  0  0  0  0  0  0  0  0  0  0
    4.2527   24.0434   14.4921 N   0  0  0  0  0  0  0  0  0  0  0  0
  1  2  2  0
  1  4  1  0
  2  5  1  0
  3  6  1  0
  3 13  2  0
  3 14  1  0
  4  8  2  0
  5  7  1  0
  5  9  2  0
  6 11  1  0
  6 15  2  0
  7 10  2  0
  7 15  1  0
  8  9  1  0
  9 16  1  0
 10 12  1  0
 10 16  1  0
 11 12  2  0
M  END
$$$$

     RDKit          3D

 23 25  0  0  0  0  0  0  0  0999 V2000
    1.9489   26.7632   14.1039 C   0  0  0  0  0  0  0  0  0  0  0  0
    2.8587   25.4012   11.6674 C   0  0  0  0  0  0  0  0  0  0  0  0
    3.0953   26.7462   11.9025 C   0  0  0  0  0  0  0  0  0  0  0  0
    3.3471   23.5262   10.1287 C   0  0  0  0  0  0  0  0  0  0  0  0
    3.3740   24.8181   10.5140 C   0  0  0  0  0  0  0  0  0  0  0  0
    3.7770   22.8629    9.5132 C   0  0  0  0  0  0  0  0  0  0  0  0
    3.8105   27.4652   10.9673 C   0  0  0  0  0  0  0  0  0  0  0  0
    4.1432   23.3383   14.1029 C   0  0  0  0  0  0  0  0  0  0  0  0
    4.1269   25.5965    9.6036 C   0  0  0  0  0  0  0  0  0  0  0  0
    4.3235   23.6222    8.7189 C   0  0  0  0  0  0  0  0  0  0  0  0
    4.2649   24.4714   14.8830 C   0  0  0  0  0  0  0  0  0  0  0  0
    5.2040   22.8797   13.3800 C   0  0  0  0  0  0  0  0  0  0  0  0
    5.4817   25.1279   14.9657 C   0  0  0  0  0  0  0  0  0  0  0  0
    6.3999   23.5523   13.4538 C   0  0  0  0  0  0  0  0  0  0  0  0
    6.5326   24.6931   14.2152 C   0  0  0  0  0  0  0  0  0  0  0  0
    1.7667   24.3319   15.1081 O   0  0  0  0  0  0  0  0  0  0  0  0
    2.9119   24.7768   17.0826 O   0  0  0  0  0  0  0  0  0  0  0  0
    2.6376   27.3822   13.0242 N   0  0  0  0  0  0  0  0  0  0  0  0
    2.8683   26.5297   15.2171 N   0  0  0  0  0  0  0  0  0  0  0  0
    4.3286   26.9017    9.8466 N   0  0  0  0  0  0  0  0  0  0  0  0
    4.6286   24.8829    8.5994 N   0  0  0  0  0  0  0  0  0  0  0  0
    2.9139   25.0477   15.6820 S   0  0  0  0  0  0  0  0  0  0  0  0
    5.0330   21.4916   12.5213 Cl  0  0  0  0  0  0  0  0  0  0  0  0
  1 18  1  0
  1 19  1  0
  2  3  1  0
  2  5  1  0
  3  7  2  0
  3 18  1  0
  4  5  2  0
  4  6  1  0
  5  9  1  0
  6 10  1  0
  7 20  1  0
  8 11  1  0
  8 12  2  0
  9 20  2  0
  9 21  1  0
 10 21  1  0
 11 13  1  0
 11 22  1  0
 12 14  1  0
 12 23  1  0
 13 15  2  0
 14 15  1  0
 16 22  1  0
 17 22  1  0
 19 22  1  0
M  END
$$$$

     RDKit          3D

 11 11  0  0  0  0  0  0  0  0999 V2000
    2.5379   24.3882   11.5875 C   0  0  0  0  0  0  0  0  0  0  0  0
    2.7403   24.3997   14.1812 C   0  0  0  0  0  0  0  0  0  0  0  0
    2.7110   24.4816    9.0713 C   0  0  0  0  0  0  0  0  0  0  0  0
    2.7943   25.0925   10.4140 C   0  0  0  0  0  0  0  0  0  0  0  0
    2.6708   25.0257   12.8805 C   0  0  0  0  0  0  0  0  0  0  0  0
    2.8936   26.3727   12.8970 C   0  0  0  0  0  0  0  0  0  0  0  0
    2.8916   26.9889   14.1263 C   0  0  0  0  0  0  0  0  0  0  0  0
    3.1085   26.4294   10.4838 C   0  0  0  0  0  0  0  0  0  0  0  0
    3.1536   27.0286   11.6924 C   0  0  0  0  0  0  0  0  0  0  0  0
    3.1636   26.1224   15.2105 C   0  0  0  0  0  0  0  0  0  0  0  0
    2.2964   23.1672    8.8526 N   0  0  0  0  0  0  0  0  0  0  0  0
  1  4  2  0
  1  5  1  0
  2  5  1  0
  3  4  1  0
  3 11  1  0
  4  8  1  0
  5  6  2  0
  6  7  1  0
  6  9  1  0
  7 10  1  0
  8  9  2  0
M  END
$$$$

     RDKit          3D

 18 20  0  0  0  0  0  0  0  0999 V2000
    2.4366   23.2595    8.2856 C   0  0  0  0  0  0  0  0  0  0  0  0
    2.7460   23.6441   10.5931 C   0  0  0  0  0  0  0  0  0  0  0  0
    2.8622   24.5368   11.6403 C   0  0  2  0  0  0  0  0  0  0  0  0
    3.0942   24.1043    9.3591 C   0  0  0  0  0  0  0  0  0  0  0  0
    3.0271   25.5523   13.5590 C   0  0  0  0  0  0  0  0  0  0  0  0
    3.1030   25.7925   14.9718 C   0  0  0  0  0  0  0  0  0  0  0  0
    2.9902   27.1013   15.4671 C   0  0  0  0  0  0  0  0  0  0  0  0
    3.0779   27.2816   16.8399 C   0  0  0  0  0  0  0  0  0  0  0  0
    3.2721   24.7199   15.8726 C   0  0  0  0  0  0  0  0  0  0  0  0
    3.3901   24.9958   17.2271 C   0  0  0  0  0  0  0  0  0  0  0  0
    3.3348   25.8595   11.4456 C   0  0  0  0  0  0  0  0  0  0  0  0
    3.6192   25.3885    9.1127 C   0  0  0  0  0  0  0  0  0  0  0  0
    3.6856   26.2924   10.1480 C   0  0  0  0  0  0  0  0  0  0  0  0
    2.6706   24.3687   13.0072 N   0  0  0  0  0  0  0  0  0  0  0  0
    2.9380   23.2438    8.3062 N   0  0  0  0  0  0  0  0  0  0  0  0
    3.2665   26.2545   17.6617 N   0  0  0  0  0  0  0  0  0  0  0  0
    3.4867   22.6094    7.5073 N   0  0  0  0  0  0  0  0  0  0  0  0
    3.4319   26.4293   12.6398 N   0  0  0  0  0  0  0  0  0  0  0  0
  1 15  1  0
  3  2  1  1
  2  4  2  0
  3 11  1  0
  3 14  1  0
  4 12  1  0
  4 15  1  0
  5  6  1  0
  5 14  2  0
  5 18  1  0
  6  7  2  0
  6  9  1  0
  7  8  1  0
  8 16  2  0
  9 10  2  0
 10 16  1  0
 11 13  2  0
 11 18  1  0
 12 13  1  0
 15 17  1  0
M  END
$$$$

     RDKit          3D

 13 14  0  0  0  0  0  0  0  0999 V2000
    2.6259   26.8710   13.7994 C   0  0  0  0  0  0  0  0  0  0  0  0
    2.4440   26.8851   15.1958 C   0  0  0  0  0  0  0  0  0  0  0  0
    2.8843   24.6306   15.3179 C   0  0  0  0  0  0  0  0  0  0  0  0
    3.0644   24.3620   11.0656 C   0  0  0  0  0  0  0  0  0  0  0  0
    3.0916   24.5344   13.9521 C   0  0  0  0  0  0  0  0  0  0  0  0
    3.1333   25.5934   11.7406 C   0  0  0  0  0  0  0  0  0  0  0  0
    2.9315   25.6556   13.1983 C   0  0  0  0  0  0  0  0  0  0  0  0
    3.2880   24.2896    9.7054 C   0  0  0  0  0  0  0  0  0  0  0  0
    3.4005   26.7729   11.0164 C   0  0  0  0  0  0  0  0  0  0  0  0
    3.6023   25.4392    9.0014 C   0  0  0  0  0  0  0  0  0  0  0  0
    3.6560   26.6573    9.6460 C   0  0  0  0  0  0  0  0  0  0  0  0
    3.1647   23.0941    9.0575 O   0  0  0  0  0  0  0  0  0  0  0  0
    2.5561   25.7690   15.9300 N   0  0  0  0  0  0  0  0  0  0  0  0
  1  2  2  0
  1  7  1  0
  2 13  1  0
  3  5  1  0
  3 13  2  0
  4  6  2  0
  4  8  1  0
  5  7  2  0
  6  7  1  0
  6  9  1  0
  8 10  2  0
  8 12  1  0
  9 11  2  0
 10 11  1  0
M  END
$$$$

     RDKit          3D

 13 14  0  0  0  0  0  0  0  0999 V2000
    2.2120   24.9079   14.5730 C   0  0  0  0  0  0  0  0  0  0  0  0
    2.2481   25.4627   15.8414 C   0  0  0  0  0  0  0  0  0  0  0  0
    2.6330   24.5630   11.6158 C   0  0  0  0  0  0  0  0  0  0  0  0
    2.7020   23.2834    9.4328 C   0  0  0  0  0  0  0  0  0  0  0  0
    2.8176   24.5190   10.2333 C   0  0  0  0  0  0  0  0  0  0  0  0
    2.8468   25.8414   13.7221 C   0  0  0  0  0  0  0  0  0  0  0  0
    2.9545   25.7357   12.3228 C   0  0  0  0  0  0  0  0  0  0  0  0
    3.1867   25.6649    9.5566 C   0  0  0  0  0  0  0  0  0  0  0  0
    3.3698   26.8519   11.6012 C   0  0  0  0  0  0  0  0  0  0  0  0
    3.3166   26.8263   14.5881 C   0  0  0  0  0  0  0  0  0  0  0  0
    3.4471   26.8197   10.2252 C   0  0  0  0  0  0  0  0  0  0  0  0
    2.9165   26.5784   15.8796 N   0  0  0  0  0  0  0  0  0  0  0  0
    3.9773   22.7272    9.2059 N   0  0  0  0  0  0  0  0  0  0  0  0
  1  2  1  0
  1  6  1  0
  2 12  1  0
  3  5  2  0
  3  7  1  0
  4  5  1  0
  4 13  1  0
  5  8  1  0
  6  7  1  0
  6 10  1  0
  7  9  2  0
  8 11  2  0
  9 11  1  0
 10 12  1  0
M  END
$$$$

     RDKit          3D

 15 17  0  0  0  0  0  0  0  0999 V2000
    2.7415   23.7020    9.4281 C   0  0  0  0  0  0  0  0  0  0  0  0
    2.7845   24.6545   15.0596 C   0  0  0  0  0  0  0  0  0  0  0  0
    2.7221   25.6892   15.9333 C   0  0  0  0  0  0  0  0  0  0  0  0
    2.8292   26.9678   15.5095 C   0  0  0  0  0  0  0  0  0  0  0  0
    2.9590   24.9418   13.7173 C   0  0  0  0  0  0  0  0  0  0  0  0
    3.0812   26.2533   13.2658 C   0  0  0  0  0  0  0  0  0  0  0  0
    3.0226   27.3136   14.1777 C   0  0  0  0  0  0  0  0  0  0  0  0
    3.3417   24.8031   11.6239 C   0  0  0  0  0  0  0  0  0  0  0  0
    3.3015   26.1544   11.8914 C   0  0  0  0  0  0  0  0  0  0  0  0
    3.3668   27.2943   10.8813 C   0  0  0  0  0  0  0  0  0  0  0  0
    3.5210   23.1375    8.4452 C   0  0  0  0  0  0  0  0  0  0  0  0
    3.6529   24.1412   10.3725 C   0  0  1  0  0  0  0  0  0  0  0  0
    3.1034   24.1033   12.6886 N   0  0  0  0  0  0  0  0  0  0  0  0
    4.7834   23.2310    8.8340 N   0  0  0  0  0  0  0  0  0  0  0  0
    4.8789   23.8109   10.0462 N   0  0  0  0  0  0  0  0  0  0  0  0
  1 11  1  0
  1 12  1  0
  2  3  1  0
  2  5  1  0
  3  4  2  0
  4  7  1  0
  5  6  2  0
  5 13  1  0
  6  7  1  0
  6  9  1  0
  8  9  2  0
 12  8  1  1
  8 13  1  0
  9 10  1  0
 11 14  1  0
 12 15  1  0
 14 15  1  0
M  END
$$$$

     RDKit          3D

 20 22  0  0  0  0  0  0  0  0999 V2000
    2.1249   26.6936   15.4242 C   0  0  0  0  0  0  0  0  0  0  0  0
    2.3136   26.5748   14.0909 C   0  0  0  0  0  0  0  0  0  0  0  0
    2.8791   25.9398   16.3120 C   0  0  0  0  0  0  0  0  0  0  0  0
    3.2706   24.4521    9.8904 C   0  0  0  0  0  0  0  0  0  0  0  0
    3.2020   24.4681   11.2897 C   0  0  2  0  0  0  0  0  0  0  0  0
    3.3443   25.6457   12.0275 C   0  0  1  0  0  0  0  0  0  0  0  0
    3.2450   25.6886   13.5501 C   0  0  0  0  0  0  0  0  0  0  0  0
    3.5813   25.6290    9.2100 C   0  0  0  0  0  0  0  0  0  0  0  0
    3.6479   26.8026   11.3272 C   0  0  0  0  0  0  0  0  0  0  0  0
    3.8407   25.1126   15.8368 C   0  0  0  0  0  0  0  0  0  0  0  0
    3.7885   26.7922    9.9118 C   0  0  0  0  0  0  0  0  0  0  0  0
    4.0918   24.9507   14.4990 C   0  0  0  0  0  0  0  0  0  0  0  0
    5.0183   22.9798   13.1747 C   0  0  0  0  0  0  0  0  0  0  0  0
    5.1712   23.9966   14.1430 C   0  0  0  0  0  0  0  0  0  0  0  0
    6.0299   22.0874   12.9367 C   0  0  0  0  0  0  0  0  0  0  0  0
    6.3843   24.0704   14.8460 C   0  0  0  0  0  0  0  0  0  0  0  0
    7.2477   22.2144   13.6207 C   0  0  0  0  0  0  0  0  0  0  0  0
    7.4127   23.2178   14.5646 C   0  0  0  0  0  0  0  0  0  0  0  0
    2.9894   23.3533    9.1732 N   0  0  0  0  0  0  0  0  0  0  0  0
    3.4068   22.9730   12.1430 Cl  0  0  0  0  0  0  0  0  0  0  0  0
  1  2  2  0
  1  3  1  0
  2  7  1  0
  3 10  2  0
  4  5  1  0
  4  8  2  0
  4 19  1  0
  5  6  1  0
  5 20  1  1
  6  7  1  1
  6  9  1  0
  7 12  2  0
  8 11  1  0
  9 11  2  0
 10 12  1  0
 12 14  1  0
 13 14  1  0
 13 15  2  0
 14 16  1  0
 15 17  1  0
 16 18  2  0
 17 18  1  0
M  END
$$$$

     RDKit          3D

 15 16  0  0  0  0  0  0  0  0999 V2000
    2.4049   24.6678   13.1419 C   0  0  0  0  0  0  0  0  0  0  0  0
    2.2981   24.8719   15.6249 C   0  0  0  0  0  0  0  0  0  0  0  0
    2.5710   24.7153   10.7142 C   0  0  0  0  0  0  0  0  0  0  0  0
    2.6342   25.3809   14.3654 C   0  0  0  0  0  0  0  0  0  0  0  0
    2.7620   25.3204   11.9239 C   0  0  0  0  0  0  0  0  0  0  0  0
    2.9235   25.3441    9.5480 C   0  0  0  0  0  0  0  0  0  0  0  0
    3.3702   26.6034   11.9793 C   0  0  0  0  0  0  0  0  0  0  0  0
    3.2675   26.6513   14.3405 C   0  0  0  0  0  0  0  0  0  0  0  0
    3.4933   26.6120    9.5791 C   0  0  0  0  0  0  0  0  0  0  0  0
    3.5408   27.2723   15.5422 C   0  0  0  0  0  0  0  0  0  0  0  0
    3.7290   27.2597   10.7736 C   0  0  0  0  0  0  0  0  0  0  0  0
    2.7644   24.6857    8.3821 O   0  0  0  0  0  0  0  0  0  0  0  0
    3.5949   27.2539   13.1364 O   0  0  0  0  0  0  0  0  0  0  0  0
    2.4713   25.5476   16.7202 N   0  0  0  0  0  0  0  0  0  0  0  0
    3.1336   26.8049   16.6476 N   0  0  0  0  0  0  0  0  0  0  0  0
  1  4  1  0
  1  5  2  0
  2  4  1  0
  2 14  2  0
  3  5  1  0
  3  6  2  0
  4  8  1  0
  5  7  1  0
  6  9  1  0
  6 12  1  0
  7 11  2  0
  7 13  1  0
  8 10  2  3
  8 13  1  0
  9 11  1  0
 10 15  1  0
M  END
$$$$

     RDKit          3D

 14 15  0  0  0  0  0  0  0  0999 V2000
    1.9537   23.9706    8.9600 C   0  0  0  0  0  0  0  0  0  0  0  0
    1.9631   25.3685   15.8415 C   0  0  0  0  0  0  0  0  0  0  0  0
    2.0504   26.7375   15.8681 C   0  0  0  0  0  0  0  0  0  0  0  0
    2.3674   24.7047   14.6619 C   0  0  0  0  0  0  0  0  0  0  0  0
    2.4290   24.7161   11.2895 C   0  0  0  0  0  0  0  0  0  0  0  0
    2.5441   27.4545   14.8051 C   0  0  0  0  0  0  0  0  0  0  0  0
    2.8268   24.0409   10.1491 C   0  0  0  0  0  0  0  0  0  0  0  0
    2.8851   25.4510   13.5759 C   0  0  0  0  0  0  0  0  0  0  0  0
    2.9146   26.8066   13.6584 C   0  0  0  0  0  0  0  0  0  0  0  0
    3.2681   24.7337   12.3854 C   0  0  0  0  0  0  0  0  0  0  0  0
    4.0744   23.3986   10.1210 C   0  0  0  0  0  0  0  0  0  0  0  0
    4.5263   24.1277   12.3659 C   0  0  0  0  0  0  0  0  0  0  0  0
    4.9160   23.4376   11.2029 C   0  0  0  0  0  0  0  0  0  0  0  0
    2.5908   23.0860    8.0607 N   0  0  0  0  0  0  0  0  0  0  0  0
  1  7  1  0
  1 14  1  0
  2  3  2  0
  2  4  1  0
  3  6  1  0
  4  8  2  0
  5  7  1  0
  5 10  2  0
  6  9  2  0
  7 11  1  0
  8  9  1  0
  8 10  1  0
 10 12  1  0
 11 13  2  0
 12 13  1  0
M  END
$$$$

     RDKit          3D

 12 13  0  0  0  0  0  0  0  0999 V2000
    2.0707   24.9128   14.9489 C   0  0  0  0  0  0  0  0  0  0  0  0
    2.1710   26.2827   15.0492 C   0  0  0  0  0  0  0  0  0  0  0  0
    2.4310   24.2807   13.8131 C   0  0  0  0  0  0  0  0  0  0  0  0
    2.6990   24.4251   10.3575 C   0  0  0  0  0  0  0  0  0  0  0  0
    2.7154   27.0053   13.9911 C   0  0  0  0  0  0  0  0  0  0  0  0
    3.0006   24.9379   12.7672 C   0  0  0  0  0  0  0  0  0  0  0  0
    3.1390   26.3180   12.8367 C   0  0  0  0  0  0  0  0  0  0  0  0
    3.3275   23.5539    9.4403 C   0  0  0  0  0  0  0  0  0  0  0  0
    4.2382   23.2396   11.3681 C   0  0  0  0  0  0  0  0  0  0  0  0
    5.1389   22.6640   12.3867 C   0  0  0  0  0  0  0  0  0  0  0  0
    3.3306   24.2458   11.5742 N   0  0  0  0  0  0  0  0  0  0  0  0
    4.2571   22.8313   10.1084 N   0  0  0  0  0  0  0  0  0  0  0  0
  1  2  2  0
  1  3  1  0
  2  5  1  0
  3  6  2  0
  4  8  1  0
  4 11  1  0
  5  7  2  0
  6  7  1  0
  6 11  1  0
  8 12  1  0
  9 10  1  0
  9 11  1  0
  9 12  2  0
M  END
$$$$

     RDKit          3D

 14 15  0  0  0  0  0  0  0  0999 V2000
    2.0559   25.5790   16.2341 C   0  0  0  0  0  0  0  0  0  0  0  0
    1.9461   25.6963   14.8495 C   0  0  0  0  0  0  0  0  0  0  0  0
    2.5531   24.5205   11.5712 C   0  0  0  0  0  0  0  0  0  0  0  0
    2.5968   24.9043   10.1872 C   0  0  0  0  0  0  0  0  0  0  0  0
    3.1341   24.8758   16.7919 C   0  0  0  0  0  0  0  0  0  0  0  0
    2.9345   25.1595   14.0074 C   0  0  0  0  0  0  0  0  0  0  0  0
    2.9325   25.4683   12.5356 C   0  0  0  0  0  0  0  0  0  0  0  0
    3.0093   26.1452    9.7782 C   0  0  0  0  0  0  0  0  0  0  0  0
    3.3430   26.7514   12.1116 C   0  0  0  0  0  0  0  0  0  0  0  0
    3.3949   27.0533   10.7432 C   0  0  0  0  0  0  0  0  0  0  0  0
    4.0566   23.3169    8.5076 C   0  0  0  0  0  0  0  0  0  0  0  0
    4.1034   24.2808   15.9584 C   0  0  0  0  0  0  0  0  0  0  0  0
    3.9991   24.4186   14.5718 C   0  0  0  0  0  0  0  0  0  0  0  0
    2.2220   23.7237    8.9348 S   0  0  0  0  0  0  0  0  0  0  0  0
  1  2  2  0
  1  5  1  0
  2  6  1  0
  3  4  2  0
  3  7  1  0
  4  8  1  0
  4 14  1  0
  5 12  2  0
  6  7  1  0
  6 13  2  0
  7  9  2  0
  8 10  2  0
  9 10  1  0
 11 14  1  0
 12 13  1  0
M  END
$$$$

     RDKit          3D

 10 10  0  0  0  0  0  0  0  0999 V2000
    1.9362   26.6966   15.2874 C   0  0  0  0  0  0  0  0  0  0  0  0
    2.0689   27.0914   13.9623 C   0  0  0  0  0  0  0  0  0  0  0  0
    2.3027   25.4004   15.6939 C   0  0  0  0  0  0  0  0  0  0  0  0
    2.5302   26.1692   13.0428 C   0  0  0  0  0  0  0  0  0  0  0  0
    2.8897   24.8792   13.4759 C   0  0  0  0  0  0  0  0  0  0  0  0
    3.0597   23.6186   11.2614 C   0  0  0  0  0  0  0  0  0  0  0  0
    3.4442   23.8718   12.6195 C   0  0  0  0  0  0  0  0  0  0  0  0
    2.0643   24.1853   10.6511 O   0  0  0  0  0  0  0  0  0  0  0  0
    3.8083   22.7301   10.6366 O   0  0  0  0  0  0  0  0  0  0  0  0
    2.7659   24.5244   14.7583 N   0  0  0  0  0  0  0  0  0  0  0  0
  1  2  2  0
  1  3  1  0
  2  4  1  0
  3 10  2  0
  4  5  2  0
  5  7  1  0
  5 10  1  0
  6  7  1  0
  6  8  2  0
  6  9  1  0
M  END
$$$$

     RDKit          3D

 13 14  0  0  0  0  0  0  0  0999 V2000
    2.2572   24.7890   15.4195 C   0  0  0  0  0  0  0  0  0  0  0  0
    2.4423   24.6302   14.0764 C   0  0  0  0  0  0  0  0  0  0  0  0
    2.4322   26.0171   16.0145 C   0  0  0  0  0  0  0  0  0  0  0  0
    2.8441   25.6721   13.2842 C   0  0  0  0  0  0  0  0  0  0  0  0
    2.9024   27.0504   15.2302 C   0  0  0  0  0  0  0  0  0  0  0  0
    3.0606   24.1679   11.2864 C   0  0  0  0  0  0  0  0  0  0  0  0
    3.1343   25.4439   11.8580 C   0  0  0  0  0  0  0  0  0  0  0  0
    3.3012   23.9861    9.9112 C   0  0  0  0  0  0  0  0  0  0  0  0
    3.5993   25.0717    9.1336 C   0  0  0  0  0  0  0  0  0  0  0  0
    3.4356   26.5349   11.0520 C   0  0  0  0  0  0  0  0  0  0  0  0
    3.6775   26.3220    9.7008 C   0  0  0  0  0  0  0  0  0  0  0  0
    3.1975   22.7858    9.4021 O   0  0  0  0  0  0  0  0  0  0  0  0
    3.1093   26.8666   13.8657 N   0  0  0  0  0  0  0  0  0  0  0  0
  1  2  2  0
  1  3  1  0
  2  4  1  0
  3  5  2  0
  4  7  1  0
  4 13  2  0
  5 13  1  0
  6  7  2  0
  6  8  1  0
  7 10  1  0
  8  9  2  0
  8 12  1  0
  9 11  1  0
 10 11  2  0
M  END
$$$$

     RDKit          3D

 11 12  0  0  0  0  0  0  0  0999 V2000
    1.9078   26.5943   15.2950 C   0  0  0  0  0  0  0  0  0  0  0  0
    2.0961   26.7402   13.9716 C   0  0  0  0  0  0  0  0  0  0  0  0
    2.3951   25.5115   13.4986 C   0  0  0  0  0  0  0  0  0  0  0  0
    2.6525   23.6198   10.2494 C   0  0  0  0  0  0  0  0  0  0  0  0
    2.4450   23.9201   11.6043 C   0  0  0  0  0  0  0  0  0  0  0  0
    2.7152   25.1795   12.0934 C   0  0  0  0  0  0  0  0  0  0  0  0
    3.1227   24.6111    9.3923 C   0  0  0  0  0  0  0  0  0  0  0  0
    3.2347   26.1424   11.2271 C   0  0  0  0  0  0  0  0  0  0  0  0
    3.4176   25.8903    9.8739 C   0  0  0  0  0  0  0  0  0  0  0  0
    2.0251   25.3090   15.5417 N   0  0  0  0  0  0  0  0  0  0  0  0
    2.3248   24.6056   14.4331 N   0  0  0  0  0  0  0  0  0  0  0  0
  1  2  1  0
  1 10  1  0
  2  3  1  0
  3  6  1  0
  3 11  1  0
  4  5  2  0
  4  7  1  0
  5  6  1  0
  6  8  2  0
  7  9  2  0
  8  9  1  0
 10 11  1  0
M  END
$$$$
