
     RDKit          3D

 14 15  0  0  0  0  0  0  0  0999 V2000
    1.7168   26.8795   13.5898 C   0  0  0  0  0  0  0  0  0  0  0  0
    2.9093   25.9561   13.1075 C   0  0  1  0  0  0  0  0  0  0  0  0
    2.9658   24.6370   10.9870 C   0  0  0  0  0  0  0  0  0  0  0  0
    3.1449   25.8957   11.6287 C   0  0  0  0  0  0  0  0  0  0  0  0
    3.3863   24.4029   14.7570 C   0  0  0  0  0  0  0  0  0  0  0  0
    3.2575   24.4766    9.6530 C   0  0  0  0  0  0  0  0  0  0  0  0
    3.5948   27.0124   10.9148 C   0  0  0  0  0  0  0  0  0  0  0  0
    3.7105   25.5924    8.9383 C   0  0  0  0  0  0  0  0  0  0  0  0
    3.8866   26.8296    9.5555 C   0  0  0  0  0  0  0  0  0  0  0  0
    4.2006   25.6291   15.1559 C   0  0  0  0  0  0  0  0  0  0  0  0
    4.1927   26.4940   13.8563 C   0  0  0  0  0  0  0  0  0  0  0  0
    3.3228   23.3872   15.3619 O   0  0  0  0  0  0  0  0  0  0  0  0
    2.6640   24.6326   13.6059 N   0  0  0  0  0  0  0  0  0  0  0  0
    4.4616   28.1730    8.6447 Cl  0  0  0  0  0  0  0  0  0  0  0  0
  2  1  1  6
  2  4  1  0
  2 11  1  0
  2 13  1  0
  3  4  2  0
  3  6  1  0
  4  7  1  0
  5 10  1  0
  5 12  2  0
  5 13  1  0
  6  8  2  0
  7  9  2  0
  8  9  1  0
  9 14  1  0
 10 11  1  0
M  END
$$$$

     RDKit          3D

 14 15  0  0  0  0  0  0  0  0999 V2000
    2.0856   26.6473   15.4107 C   0  0  0  0  0  0  0  0  0  0  0  0
    2.2949   26.8832   14.0051 C   0  0  0  0  0  0  0  0  0  0  0  0
    2.6292   25.4178   16.0743 C   0  0  0  0  0  0  0  0  0  0  0  0
    2.7917   25.8328   11.8112 C   0  0  0  0  0  0  0  0  0  0  0  0
    2.7987   25.7568   13.1833 C   0  0  0  0  0  0  0  0  0  0  0  0
    3.2960   24.6015   13.8604 C   0  0  0  0  0  0  0  0  0  0  0  0
    3.3379   24.7935   11.0900 C   0  0  0  0  0  0  0  0  0  0  0  0
    3.9289   23.6137   13.0712 C   0  0  0  0  0  0  0  0  0  0  0  0
    3.9143   23.7255   11.7040 C   0  0  0  0  0  0  0  0  0  0  0  0
    1.8694   24.3696    8.9504 O   0  0  0  0  0  0  0  0  0  0  0  0
    3.7450   26.0653    8.9048 O   0  0  0  0  0  0  0  0  0  0  0  0
    4.1498   23.6752    8.7926 O   0  0  0  0  0  0  0  0  0  0  0  0
    3.1568   24.3779   15.2481 N   0  0  0  0  0  0  0  0  0  0  0  0
    3.2246   24.7289    9.3513 S   0  0  0  0  0  0  0  0  0  0  0  0
  1  2  2  0
  1  3  1  0
  2  5  1  0
  3 13  2  0
  4  5  2  0
  4  7  1  0
  5  6  1  0
  6  8  2  0
  6 13  1  0
  7  9  2  0
  7 14  1  0
  8  9  1  0
 10 14  1  0
 11 14  1  0
 12 14  1  0
M  END
$$$$

     RDKit          3D

 18 19  0  0  0  0  0  0  0  0999 V2000
    2.2676   26.8623   15.2786 C   0  0  0  0  0  0  0  0  0  0  0  0
    2.7270   25.9452   16.2453 C   0  0  0  0  0  0  0  0  0  0  0  0
    2.8936   26.9487   14.0200 C   0  0  0  0  0  0  0  0  0  0  0  0
    3.0298   25.1109    9.3663 C   0  0  0  0  0  0  0  0  0  0  0  0
    3.3553   27.4438   10.2254 C   0  0  0  0  0  0  0  0  0  0  0  0
    3.6533   24.4343   18.1821 C   0  0  0  0  0  0  0  0  0  0  0  0
    3.4563   25.9921   10.3565 C   0  0  2  0  0  0  0  0  0  0  0  0
    3.8312   25.1194   15.9475 C   0  0  0  0  0  0  0  0  0  0  0  0
    4.0945   25.3603   11.4217 C   0  0  0  0  0  0  0  0  0  0  0  0
    3.9497   26.0748   13.7210 C   0  0  0  0  0  0  0  0  0  0  0  0
    4.1689   23.9929   11.3183 C   0  0  0  0  0  0  0  0  0  0  0  0
    4.4381   25.1878   14.7079 C   0  0  0  0  0  0  0  0  0  0  0  0
    4.7302   23.0836   12.3048 C   0  0  0  0  0  0  0  0  0  0  0  0
    6.1690   23.1323   12.6283 C   0  0  0  0  0  0  0  0  0  0  0  0
    4.0179   22.1776   12.8540 O   0  0  0  0  0  0  0  0  0  0  0  0
    4.2728   24.1802   16.8714 O   0  0  0  0  0  0  0  0  0  0  0  0
    4.5968   26.1273   12.4948 O   0  0  0  0  0  0  0  0  0  0  0  0
    3.5031   23.5115    9.8228 S   0  0  0  0  0  0  0  0  0  0  0  0
  1  2  2  0
  1  3  1  0
  2  8  1  0
  3 10  2  0
  4  7  1  0
  4 18  1  0
  7  5  1  6
  6 16  1  0
  7  9  1  0
  8 12  2  0
  8 16  1  0
  9 11  2  0
  9 17  1  0
 10 12  1  0
 10 17  1  0
 11 13  1  0
 11 18  1  0
 13 14  1  0
 13 15  2  0
M  END
$$$$

     RDKit          3D

 15 16  0  0  0  0  0  0  0  0999 V2000
    1.9814   26.8830   15.3812 C   0  0  0  0  0  0  0  0  0  0  0  0
    2.6506   24.8367   11.4926 C   0  0  0  0  0  0  0  0  0  0  0  0
    2.7521   24.4777   10.1153 C   0  0  0  0  0  0  0  0  0  0  0  0
    3.0842   26.1116   11.9280 C   0  0  0  0  0  0  0  0  0  0  0  0
    3.0884   26.4114   13.3792 C   0  0  0  0  0  0  0  0  0  0  0  0
    3.1540   26.8811   16.1153 C   0  0  0  0  0  0  0  0  0  0  0  0
    3.4038   22.7109    8.5181 C   0  0  0  0  0  0  0  0  0  0  0  0
    3.2188   25.4455    9.2255 C   0  0  0  0  0  0  0  0  0  0  0  0
    3.6351   26.6992    9.6669 C   0  0  0  0  0  0  0  0  0  0  0  0
    3.6007   27.0322   11.0178 C   0  0  0  0  0  0  0  0  0  0  0  0
    4.2937   26.3650   14.0913 C   0  0  0  0  0  0  0  0  0  0  0  0
    4.3252   26.5986   15.4344 C   0  0  0  0  0  0  0  0  0  0  0  0
    2.0687   23.9181   12.3462 O   0  0  0  0  0  0  0  0  0  0  0  0
    2.4700   23.2611    9.6754 O   0  0  0  0  0  0  0  0  0  0  0  0
    1.9305   26.6740   14.0270 N   0  0  0  0  0  0  0  0  0  0  0  0
  1  6  2  0
  1 15  1  0
  2  3  2  0
  2  4  1  0
  2 13  1  0
  3  8  1  0
  3 14  1  0
  4  5  1  0
  4 10  2  0
  5 11  1  0
  5 15  2  0
  6 12  1  0
  7 14  1  0
  8  9  2  0
  9 10  1  0
 11 12  2  0
M  END
$$$$

     RDKit          3D

 11 11  0  0  0  0  0  0  0  0999 V2000
    2.3796   26.5138   15.3180 C   0  0  0  0  0  0  0  0  0  0  0  0
    2.6983   25.9357   13.9654 C   0  0  0  0  0  0  0  0  0  0  0  0
    2.7498   26.8399   12.9215 C   0  0  0  0  0  0  0  0  0  0  0  0
    3.0197   24.6034   13.6707 C   0  0  0  0  0  0  0  0  0  0  0  0
    3.0951   25.1010   11.2942 C   0  0  0  0  0  0  0  0  0  0  0  0
    2.9259   26.4197   11.6476 C   0  0  0  0  0  0  0  0  0  0  0  0
    3.2399   24.1729   12.3257 C   0  0  0  0  0  0  0  0  0  0  0  0
    3.2167   24.8034    9.8681 C   0  0  0  0  0  0  0  0  0  0  0  0
    2.1287   25.5937   16.2843 O   0  0  0  0  0  0  0  0  0  0  0  0
    3.4558   22.8621   11.9733 O   0  0  0  0  0  0  0  0  0  0  0  0
    2.0529   23.9124    9.0455 S   0  0  0  0  0  0  0  0  0  0  0  0
  1  2  1  0
  1  9  1  0
  2  3  2  0
  2  4  1  0
  3  6  1  0
  4  7  2  0
  5  6  2  0
  5  7  1  0
  5  8  1  0
  7 10  1  0
  8 11  1  0
M  END
$$$$

     RDKit          3D

 17 18  0  0  0  0  0  0  0  0999 V2000
    2.0960   25.7040   15.4140 C   0  0  0  0  0  0  0  0  0  0  0  0
    2.0707   26.9343   14.7167 C   0  0  0  0  0  0  0  0  0  0  0  0
    2.5117   24.5577   14.7532 C   0  0  0  0  0  0  0  0  0  0  0  0
    2.4141   26.9683   13.3699 C   0  0  0  0  0  0  0  0  0  0  0  0
    2.7992   25.7988   12.7272 C   0  0  0  0  0  0  0  0  0  0  0  0
    3.1759   24.7483   10.5268 C   0  0  0  0  0  0  0  0  0  0  0  0
    3.1635   25.9014   11.3437 C   0  0  0  0  0  0  0  0  0  0  0  0
    3.5484   27.1301   10.7958 C   0  0  0  0  0  0  0  0  0  0  0  0
    3.6743   24.7969    9.1862 C   0  0  0  0  0  0  0  0  0  0  0  0
    4.0826   26.0569    8.6890 C   0  0  0  0  0  0  0  0  0  0  0  0
    4.0171   27.2111    9.4898 C   0  0  0  0  0  0  0  0  0  0  0  0
    2.6794   23.6113   11.0165 O   0  0  0  0  0  0  0  0  0  0  0  0
    3.5262   29.6580    9.1593 O   0  0  0  0  0  0  0  0  0  0  0  0
    4.8823   28.5313    7.5414 O   0  0  0  0  0  0  0  0  0  0  0  0
    2.8627   24.5956   13.4142 N   0  0  0  0  0  0  0  0  0  0  0  0
    5.8459   29.2290    9.6967 N   0  0  0  0  0  0  0  0  0  0  0  0
    4.5670   28.7255    8.9403 S   0  0  0  0  0  0  0  0  0  0  0  0
  1  2  2  0
  1  3  1  0
  2  4  1  0
  3 15  2  0
  4  5  2  0
  5  7  1  0
  5 15  1  0
  6  7  2  0
  6  9  1  0
  6 12  1  0
  7  8  1  0
  8 11  2  0
  9 10  2  0
 10 11  1  0
 11 17  1  0
 13 17  1  0
 14 17  1  0
 16 17  1  0
M  END
$$$$

     RDKit          3D

 12 13  0  0  0  0  0  0  0  0999 V2000
    2.3861   24.5893   14.3663 C   0  0  0  0  0  0  0  0  0  0  0  0
    2.4009   25.4196   15.4723 C   0  0  0  0  0  0  0  0  0  0  0  0
    2.6090   25.0783   13.0707 C   0  0  0  0  0  0  0  0  0  0  0  0
    2.5965   26.7935   15.3009 C   0  0  0  0  0  0  0  0  0  0  0  0
    2.6925   23.6742    9.6762 C   0  0  0  0  0  0  0  0  0  0  0  0
    2.7679   24.7085   10.7343 C   0  0  0  0  0  0  0  0  0  0  0  0
    2.8208   26.4337   12.9190 C   0  0  0  0  0  0  0  0  0  0  0  0
    2.8082   27.3007   14.0327 C   0  0  0  0  0  0  0  0  0  0  0  0
    3.0884   26.0605   10.5012 C   0  0  0  0  0  0  0  0  0  0  0  0
    3.0928   26.9488   11.5925 C   0  0  0  0  0  0  0  0  0  0  0  0
    1.9640   23.4271    8.7526 N   0  0  0  0  0  0  0  0  0  0  0  0
    2.5780   24.2284   11.9910 N   0  0  0  0  0  0  0  0  0  0  0  0
  1  2  2  0
  1  3  1  0
  2  4  1  0
  3  7  2  0
  3 12  1  0
  4  8  2  0
  5  6  1  0
  5 11  2  0
  6  9  1  0
  6 12  2  0
  7  8  1  0
  7 10  1  0
  9 10  2  0
M  END
$$$$

     RDKit          3D

 13 14  0  0  0  0  0  0  0  0999 V2000
    2.0692   26.3986   14.0900 C   0  0  0  0  0  0  0  0  0  0  0  0
    1.9407   26.5275   15.4470 C   0  0  0  0  0  0  0  0  0  0  0  0
    2.4641   24.4781    9.8951 C   0  0  0  0  0  0  0  0  0  0  0  0
    2.8555   24.5433   11.2694 C   0  0  0  0  0  0  0  0  0  0  0  0
    3.1717   26.8120   16.0804 C   0  0  0  0  0  0  0  0  0  0  0  0
    3.4103   25.8771   11.3883 C   0  0  0  0  0  0  0  0  0  0  0  0
    3.4326   26.6215   13.8136 C   0  0  0  0  0  0  0  0  0  0  0  0
    4.0889   26.5964   12.5249 C   0  0  0  0  0  0  0  0  0  0  0  0
    4.1420   26.8976   15.0178 C   0  0  0  0  0  0  0  0  0  0  0  0
    2.6731   23.6029   12.1383 O   0  0  0  0  0  0  0  0  0  0  0  0
    1.8467   23.4659    9.1699 N   0  0  0  0  0  0  0  0  0  0  0  0
    2.7783   25.6506    9.3293 N   0  0  0  0  0  0  0  0  0  0  0  0
    3.3178   26.4593   10.2048 N   0  0  0  0  0  0  0  0  0  0  0  0
  1  2  1  0
  1  7  1  0
  2  5  1  0
  3  4  1  0
  3 11  2  0
  3 12  1  0
  4  6  2  0
  4 10  1  0
  5  9  1  0
  6  8  1  0
  6 13  1  0
  7  8  1  0
  7  9  1  0
 12 13  1  0
M  END
$$$$

     RDKit          3D

 12 12  0  0  0  0  0  0  0  0999 V2000
    1.9727   26.3565   15.6785 C   0  0  0  0  0  0  0  0  0  0  0  0
    2.3280   24.8171   13.8050 C   0  0  0  0  0  0  0  0  0  0  0  0
    2.2685   26.1393   14.2154 C   0  0  0  0  0  0  0  0  0  0  0  0
    2.5997   24.4899    9.3251 C   0  0  0  0  0  0  0  0  0  0  0  0
    2.6385   24.5121   12.4663 C   0  0  0  0  0  0  0  0  0  0  0  0
    2.5357   27.1628   13.3422 C   0  0  0  0  0  0  0  0  0  0  0  0
    2.8741   26.8858   12.0203 C   0  0  0  0  0  0  0  0  0  0  0  0
    2.8809   27.3639   16.3406 C   0  0  0  0  0  0  0  0  0  0  0  0
    2.9368   25.5557   11.5562 C   0  0  0  0  0  0  0  0  0  0  0  0
    3.2550   23.2009    8.8884 C   0  0  0  0  0  0  0  0  0  0  0  0
    1.4697   24.7523    8.8654 O   0  0  0  0  0  0  0  0  0  0  0  0
    3.2626   25.2351   10.2615 N   0  0  0  0  0  0  0  0  0  0  0  0
  1  3  1  0
  1  8  1  0
  2  3  2  0
  2  5  1  0
  3  6  1  0
  4 10  1  0
  4 11  2  0
  4 12  1  0
  5  9  2  0
  6  7  2  0
  7  9  1  0
  9 12  1  0
M  END
$$$$

     RDKit          3D

 14 14  0  0  0  0  0  0  0  0999 V2000
    2.5116   26.8970   13.2899 C   0  0  0  0  0  0  0  0  0  0  0  0
    2.4254   26.9351   14.7670 C   0  0  0  0  0  0  0  0  0  0  0  0
    2.7720   24.1290   10.7824 C   0  0  0  0  0  0  0  0  0  0  0  0
    2.9005   25.4151   11.3363 C   0  0  1  0  0  0  0  0  0  0  0  0
    2.6866   25.5984   12.7168 C   0  0  0  0  0  0  0  0  0  0  0  0
    2.9215   24.4873   13.4547 C   0  0  0  0  0  0  0  0  0  0  0  0
    3.0364   24.5759   14.8583 C   0  0  0  0  0  0  0  0  0  0  0  0
    3.1418   25.8894   16.8855 C   0  0  0  0  0  0  0  0  0  0  0  0
    3.2034   24.0821    9.4884 C   0  0  0  0  0  0  0  0  0  0  0  0
    3.3896   26.2613   10.3522 C   0  0  0  0  0  0  0  0  0  0  0  0
    3.3442   23.5115   15.4501 O   0  0  0  0  0  0  0  0  0  0  0  0
    2.8611   25.7540   15.4673 N   0  0  0  0  0  0  0  0  0  0  0  0
    3.3987   22.8115    8.8998 N   0  0  0  0  0  0  0  0  0  0  0  0
    3.4157   25.3590    9.2467 N   0  0  0  0  0  0  0  0  0  0  0  0
  1  2  1  0
  1  5  1  0
  2 12  1  0
  3  4  1  0
  3  9  1  0
  4  5  1  0
  4 10  1  1
  5  6  2  0
  6  7  1  0
  7 11  2  0
  7 12  1  0
  8 12  1  0
  9 13  2  0
  9 14  1  0
M  END
$$$$

     RDKit          3D

 14 15  0  0  0  0  0  0  0  0999 V2000
    2.7212   26.7372   15.8936 C   0  0  0  0  0  0  0  0  0  0  0  0
    2.7656   27.1116   14.5993 C   0  0  0  0  0  0  0  0  0  0  0  0
    2.9887   25.4514   16.3101 C   0  0  0  0  0  0  0  0  0  0  0  0
    3.0773   26.1790   13.6071 C   0  0  0  0  0  0  0  0  0  0  0  0
    3.1149   26.5263   12.2368 C   0  0  0  0  0  0  0  0  0  0  0  0
    3.3128   24.4811   15.3535 C   0  0  0  0  0  0  0  0  0  0  0  0
    3.3608   24.8368   13.9779 C   0  0  0  0  0  0  0  0  0  0  0  0
    3.3809   25.5696   11.2778 C   0  0  0  0  0  0  0  0  0  0  0  0
    3.6252   23.9111   12.9919 C   0  0  0  0  0  0  0  0  0  0  0  0
    3.6047   24.2438   11.6412 C   0  0  0  0  0  0  0  0  0  0  0  0
    2.0774   23.2854    8.6767 O   0  0  0  0  0  0  0  0  0  0  0  0
    3.7596   23.2342   10.6650 N   0  0  0  0  0  0  0  0  0  0  0  0
    4.7736   23.5793    8.3766 N   0  0  0  0  0  0  0  0  0  0  0  0
    3.3498   23.6413    9.1301 S   0  0  1  0  0  0  0  0  0  0  0  0
  1  2  2  0
  1  3  1  0
  2  4  1  0
  3  6  2  0
  4  5  1  0
  4  7  1  0
  5  8  2  0
  6  7  1  0
  7  9  2  0
  8 10  1  0
  9 10  1  0
 10 12  2  3
 11 14  1  0
 12 14  1  0
 14 13  1  6
M  END
$$$$

     RDKit          3D

 20 23  0  0  0  0  0  0  0  0999 V2000
    2.1534   27.1174   15.0360 C   0  0  0  0  0  0  0  0  0  0  0  0
    2.6574   25.5881    9.0666 C   0  0  0  0  0  0  0  0  0  0  0  0
    2.7159   24.2017    9.0667 C   0  0  0  0  0  0  0  0  0  0  0  0
    2.7618   26.4004   16.0391 C   0  0  0  0  0  0  0  0  0  0  0  0
    2.6841   27.1465   13.7738 C   0  0  0  0  0  0  0  0  0  0  0  0
    3.3290   23.5466   10.1429 C   0  0  0  0  0  0  0  0  0  0  0  0
    3.1840   26.3202   10.1023 C   0  0  0  0  0  0  0  0  0  0  0  0
    3.9035   24.2715   11.2095 C   0  0  0  0  0  0  0  0  0  0  0  0
    3.8378   25.6977   11.1734 C   0  0  0  0  0  0  0  0  0  0  0  0
    3.8529   26.4237   13.4761 C   0  0  0  0  0  0  0  0  0  0  0  0
    3.9269   25.6609   15.7755 C   0  0  0  0  0  0  0  0  0  0  0  0
    4.4519   25.6479   14.4934 C   0  0  0  0  0  0  0  0  0  0  0  0
    5.5924   23.7547   13.1413 C   0  0  0  0  0  0  0  0  0  0  0  0
    5.6383   24.7928   14.1152 C   0  0  0  0  0  0  0  0  0  0  0  0
    6.6858   22.8899   13.0179 C   0  0  0  0  0  0  0  0  0  0  0  0
    6.8612   25.0790   14.7589 C   0  0  0  0  0  0  0  0  0  0  0  0
    7.8460   23.1116   13.7170 C   0  0  0  0  0  0  0  0  0  0  0  0
    7.9635   24.2258   14.5706 C   0  0  0  0  0  0  0  0  0  0  0  0
    4.3177   26.5598   12.1297 O   0  0  0  0  0  0  0  0  0  0  0  0
    4.4243   23.5593   12.3500 N   0  0  0  0  0  0  0  0  0  0  0  0
  1  4  2  0
  1  5  1  0
  2  3  2  0
  2  7  1  0
  3  6  1  0
  4 11  1  0
  5 10  2  0
  6  8  2  0
  7  9  2  0
  8  9  1  0
  8 20  1  0
  9 19  1  0
 10 12  1  0
 10 19  1  0
 11 12  2  0
 12 14  1  0
 13 14  2  0
 13 15  1  0
 13 20  1  0
 14 16  1  0
 15 17  2  0
 16 18  2  0
 17 18  1  0
M  END
$$$$

     RDKit          3D

 15 16  0  0  0  0  0  0  0  0999 V2000
    2.0665   26.5936   14.0373 C   0  0  0  0  0  0  0  0  0  0  0  0
    2.0662   26.7455   15.4323 C   0  0  0  0  0  0  0  0  0  0  0  0
    2.7889   24.5135   10.1791 C   0  0  0  0  0  0  0  0  0  0  0  0
    2.7713   24.8594   11.5545 C   0  0  0  0  0  0  0  0  0  0  0  0
    3.2858   25.4387    9.3012 C   0  0  0  0  0  0  0  0  0  0  0  0
    3.3207   26.1137   11.9722 C   0  0  0  0  0  0  0  0  0  0  0  0
    3.3157   26.4295   13.3974 C   0  0  0  0  0  0  0  0  0  0  0  0
    3.2761   26.8818   16.1410 C   0  0  0  0  0  0  0  0  0  0  0  0
    3.7526   26.6841    9.6758 C   0  0  0  0  0  0  0  0  0  0  0  0
    3.7446   27.0436   11.0355 C   0  0  0  0  0  0  0  0  0  0  0  0
    4.5503   26.6276   14.0933 C   0  0  0  0  0  0  0  0  0  0  0  0
    4.5110   26.8926   15.4865 C   0  0  0  0  0  0  0  0  0  0  0  0
    2.2974   23.3740    9.8853 O   0  0  0  0  0  0  0  0  0  0  0  0
    2.2281   23.9731   12.4135 O   0  0  0  0  0  0  0  0  0  0  0  0
    3.2230   27.0310   17.4505 F   0  0  0  0  0  0  0  0  0  0  0  0
  1  2  1  0
  1  7  2  0
  2  8  1  0
  3  4  1  0
  3  5  1  0
  3 13  2  0
  4  6  2  0
  4 14  1  0
  5  9  2  0
  6  7  1  0
  6 10  1  0
  7 11  1  0
  8 12  2  0
  8 15  1  0
  9 10  1  0
 11 12  1  0
M  END
$$$$

     RDKit          3D

 13 14  0  0  0  0  0  0  0  0999 V2000
    2.6077   24.6920   13.9695 C   0  0  0  0  0  0  0  0  0  0  0  0
    2.5901   24.9958   15.3942 C   0  0  0  0  0  0  0  0  0  0  0  0
    2.4423   26.4767   15.5059 C   0  0  0  0  0  0  0  0  0  0  0  0
    2.7196   27.0013   14.1505 C   0  0  0  0  0  0  0  0  0  0  0  0
    3.0677   25.8998   11.8852 C   0  0  0  0  0  0  0  0  0  0  0  0
    3.3052   24.7068   11.1286 C   0  0  0  0  0  0  0  0  0  0  0  0
    3.3049   27.1225   11.2652 C   0  0  0  0  0  0  0  0  0  0  0  0
    3.6475   24.7840    9.7567 C   0  0  0  0  0  0  0  0  0  0  0  0
    3.6549   27.1690    9.9147 C   0  0  0  0  0  0  0  0  0  0  0  0
    3.8064   26.0187    9.1714 C   0  0  0  0  0  0  0  0  0  0  0  0
    3.9345   23.6216    8.8893 C   0  0  0  0  0  0  0  0  0  0  0  0
    2.6252   25.8949   13.2466 N   0  0  0  0  0  0  0  0  0  0  0  0
    3.0185   22.6845    8.6194 N   0  0  0  0  0  0  0  0  0  0  0  0
  1  2  1  0
  1 12  1  0
  2  3  1  0
  3  4  1  0
  4 12  1  0
  5  6  2  0
  5  7  1  0
  5 12  1  0
  6  8  1  0
  7  9  2  0
  8 10  2  0
  8 11  1  0
  9 10  1  0
 11 13  1  0
M  END
$$$$

     RDKit          3D

 12 13  0  0  0  0  0  0  0  0999 V2000
    2.2368   26.5870   13.9532 C   0  0  0  0  0  0  0  0  0  0  0  0
    2.6463   25.3581   11.7215 C   0  0  0  0  0  0  0  0  0  0  0  0
    2.4600   26.5127   15.3787 C   0  0  0  0  0  0  0  0  0  0  0  0
    2.7762   25.5784   13.1572 C   0  0  0  0  0  0  0  0  0  0  0  0
    3.1521   23.5317   10.0660 C   0  0  0  0  0  0  0  0  0  0  0  0
    3.2875   24.1352   11.4260 C   0  0  2  0  0  0  0  0  0  0  0  0
    3.2152   25.4438   15.8948 C   0  0  0  0  0  0  0  0  0  0  0  0
    3.5466   24.5389   13.6939 C   0  0  1  0  0  0  0  0  0  0  0  0
    3.7482   24.4486   15.0765 C   0  0  0  0  0  0  0  0  0  0  0  0
    3.9350   23.6162   12.5297 C   0  0  0  0  0  0  0  0  0  0  0  0
    2.1109   23.8657    9.4042 O   0  0  0  0  0  0  0  0  0  0  0  0
    4.0130   22.7288    9.6182 O   0  0  0  0  0  0  0  0  0  0  0  0
  1  3  1  0
  1  4  2  0
  2  4  1  0
  2  6  1  0
  3  7  1  0
  4  8  1  0
  6  5  1  1
  5 11  2  0
  5 12  1  0
  6 10  1  0
  7  9  2  0
  8  9  1  0
  8 10  1  1
M  END
$$$$

     RDKit          3D

 19 21  0  0  0  0  0  0  0  0999 V2000
    2.0970   27.2502   14.0248 C   0  0  0  0  0  0  0  0  0  0  0  0
    2.3875   27.5155   15.4143 C   0  0  0  0  0  0  0  0  0  0  0  0
    2.9087   23.8022   10.8608 C   0  0  0  0  0  0  0  0  0  0  0  0
    2.9872   24.3779   12.0756 C   0  0  0  0  0  0  0  0  0  0  0  0
    2.9223   24.4909    9.7079 C   0  0  0  0  0  0  0  0  0  0  0  0
    3.0698   25.7354   12.2464 C   0  0  0  0  0  0  0  0  0  0  0  0
    3.0644   25.9379    9.7995 C   0  0  0  0  0  0  0  0  0  0  0  0
    3.0626   26.3257   13.5935 C   0  0  0  0  0  0  0  0  0  0  0  0
    3.1661   26.5227   11.0620 C   0  0  0  0  0  0  0  0  0  0  0  0
    3.4851   26.7768   15.8383 C   0  0  0  0  0  0  0  0  0  0  0  0
    3.8925   26.0254   14.6983 C   0  0  0  0  0  0  0  0  0  0  0  0
    3.9729   22.8917    8.1183 C   0  0  0  0  0  0  0  0  0  0  0  0
    5.0237   23.8669   15.1274 C   0  0  0  0  0  0  0  0  0  0  0  0
    5.0657   25.1952   14.7143 C   0  0  0  0  0  0  0  0  0  0  0  0
    6.1657   23.1003   15.1117 C   0  0  0  0  0  0  0  0  0  0  0  0
    6.2698   25.7279   14.3305 C   0  0  0  0  0  0  0  0  0  0  0  0
    7.3637   23.6146   14.6954 C   0  0  0  0  0  0  0  0  0  0  0  0
    7.4367   24.9525   14.3211 C   0  0  0  0  0  0  0  0  0  0  0  0
    2.8317   23.6946    8.5286 N   0  0  0  0  0  0  0  0  0  0  0  0
  1  2  1  0
  1  8  1  0
  2 10  1  0
  3  4  2  0
  3  5  1  0
  4  6  1  0
  5  7  2  0
  5 19  1  0
  6  8  1  0
  6  9  2  0
  7  9  1  0
  8 11  2  0
 10 11  1  0
 11 14  1  0
 12 19  1  0
 13 14  1  0
 13 15  1  0
 14 16  2  0
 15 17  2  0
 16 18  1  0
 17 18  1  0
M  END
$$$$

     RDKit          3D

 15 16  0  0  0  0  0  0  0  0999 V2000
    2.2092   26.3698   14.0949 C   0  0  0  0  0  0  0  0  0  0  0  0
    2.2291   26.2263   15.4595 C   0  0  0  0  0  0  0  0  0  0  0  0
    2.6819   23.7394    9.2400 C   0  0  0  0  0  0  0  0  0  0  0  0
    3.0560   24.9681    9.9832 C   0  0  0  0  0  0  0  0  0  0  0  0
    2.9803   25.0392   11.3541 C   0  0  0  0  0  0  0  0  0  0  0  0
    3.4016   25.9270   16.1427 C   0  0  0  0  0  0  0  0  0  0  0  0
    3.4229   26.1820   13.3784 C   0  0  0  0  0  0  0  0  0  0  0  0
    3.7990   27.2200    9.8544 C   0  0  0  0  0  0  0  0  0  0  0  0
    3.7869   27.3403   11.2365 C   0  0  0  0  0  0  0  0  0  0  0  0
    4.6197   25.7971   15.4645 C   0  0  0  0  0  0  0  0  0  0  0  0
    4.6194   25.9359   14.0841 C   0  0  0  0  0  0  0  0  0  0  0  0
    1.5642   23.6728    8.7708 O   0  0  0  0  0  0  0  0  0  0  0  0
    3.6402   22.8409    9.0135 N   0  0  0  0  0  0  0  0  0  0  0  0
    3.4383   26.0402    9.2504 N   0  0  0  0  0  0  0  0  0  0  0  0
    3.4125   26.1994   11.9867 N   0  0  0  0  0  0  0  0  0  0  0  0
  1  2  2  0
  1  7  1  0
  2  6  1  0
  3  4  1  0
  3 12  2  0
  3 13  1  0
  4  5  1  0
  4 14  2  0
  5 15  1  0
  6 10  1  0
  7 11  1  0
  7 15  1  0
  8  9  2  0
  8 14  1  0
  9 15  1  0
 10 11  2  0
M  END
$$$$

     RDKit          3D

 12 12  0  0  0  0  0  0  0  0999 V2000
    2.3075   25.0533   13.9114 C   0  0  0  0  0  0  0  0  0  0  0  0
    2.2386   26.3938   14.0218 C   0  0  0  0  0  0  0  0  0  0  0  0
    2.5742   24.3140   12.8021 C   0  0  0  0  0  0  0  0  0  0  0  0
    2.5523   27.3584   13.1006 C   0  0  0  0  0  0  0  0  0  0  0  0
    2.8231   27.1716   16.2080 C   0  0  0  0  0  0  0  0  0  0  0  0
    2.9506   24.7468   11.6021 C   0  0  0  0  0  0  0  0  0  0  0  0
    3.0016   27.1631   11.8201 C   0  0  0  0  0  0  0  0  0  0  0  0
    3.2110   23.6907   10.6699 C   0  0  0  0  0  0  0  0  0  0  0  0
    3.1801   25.9735   11.1625 C   0  0  0  0  0  0  0  0  0  0  0  0
    1.8280   26.7940   15.3148 O   0  0  0  0  0  0  0  0  0  0  0  0
    2.4161   23.6557    9.8780 O   0  0  0  0  0  0  0  0  0  0  0  0
    3.8970   22.7721   10.7270 O   0  0  0  0  0  0  0  0  0  0  0  0
  1  2  1  0
  1  3  2  0
  2  4  2  0
  2 10  1  0
  3  6  1  0
  4  7  1  0
  5 10  1  0
  6  8  1  0
  6  9  2  0
  7  9  1  0
  8 11  2  0
  8 12  1  0
M  END
$$$$

     RDKit          3D

 13 14  0  0  0  0  0  0  0  0999 V2000
    2.0313   26.7534   14.3807 C   0  0  0  0  0  0  0  0  0  0  0  0
    2.2722   25.6538   15.2063 C   0  0  0  0  0  0  0  0  0  0  0  0
    2.3405   26.6196   13.0122 C   0  0  0  0  0  0  0  0  0  0  0  0
    2.6533   23.5373    9.2862 C   0  0  0  0  0  0  0  0  0  0  0  0
    2.5543   23.8543   10.6254 C   0  0  0  0  0  0  0  0  0  0  0  0
    2.8758   24.5005   14.7254 C   0  0  0  0  0  0  0  0  0  0  0  0
    2.8306   25.3920   12.5234 C   0  0  0  0  0  0  0  0  0  0  0  0
    3.1506   24.3934   13.3707 C   0  0  0  0  0  0  0  0  0  0  0  0
    3.0178   25.0862   11.1196 C   0  0  0  0  0  0  0  0  0  0  0  0
    3.2020   24.4863    8.3939 C   0  0  0  0  0  0  0  0  0  0  0  0
    3.4931   26.0080   10.2502 C   0  0  0  0  0  0  0  0  0  0  0  0
    3.6772   25.7019    8.9573 C   0  0  0  0  0  0  0  0  0  0  0  0
    3.2780   23.5015   15.4582 O   0  0  0  0  0  0  0  0  0  0  0  0
  1  2  2  0
  1  3  1  0
  2  6  1  0
  3  7  2  0
  4  5  2  0
  4 10  1  0
  5  9  1  0
  6  8  2  0
  6 13  1  0
  7  8  1  0
  7  9  1  0
  9 11  2  0
 10 12  2  0
 11 12  1  0
M  END
$$$$

     RDKit          3D

 16 17  0  0  0  0  0  0  0  0999 V2000
    2.5040   27.0295   14.0722 C   0  0  0  0  0  0  0  0  0  0  0  0
    2.4674   26.9876   15.4730 C   0  0  0  0  0  0  0  0  0  0  0  0
    2.8705   25.8411   16.1921 C   0  0  0  0  0  0  0  0  0  0  0  0
    3.1496   25.9106   11.9215 C   0  0  0  0  0  0  0  0  0  0  0  0
    3.1076   25.9386   13.3504 C   0  0  0  0  0  0  0  0  0  0  0  0
    3.6129   24.8569   14.0647 C   0  0  0  0  0  0  0  0  0  0  0  0
    3.5442   24.8121   15.5108 C   0  0  0  0  0  0  0  0  0  0  0  0
    3.7483   24.8510   11.2558 C   0  0  0  0  0  0  0  0  0  0  0  0
    4.2636   23.7851   12.0147 C   0  0  0  0  0  0  0  0  0  0  0  0
    4.2046   23.7948   13.3897 C   0  0  0  0  0  0  0  0  0  0  0  0
    2.4693   24.5741    8.9688 O   0  0  0  0  0  0  0  0  0  0  0  0
    4.2858   26.0451    9.0252 O   0  0  0  0  0  0  0  0  0  0  0  0
    4.7468   23.6441    9.1246 O   0  0  0  0  0  0  0  0  0  0  0  0
    3.8595   24.7383    9.5116 S   0  0  0  0  0  0  0  0  0  0  0  0
    2.6793   26.9243   11.2959 F   0  0  0  0  0  0  0  0  0  0  0  0
    4.9194   22.7862   11.4871 F   0  0  0  0  0  0  0  0  0  0  0  0
  1  2  2  0
  1  5  1  0
  2  3  1  0
  3  7  2  0
  4  5  2  0
  4  8  1  0
  4 15  1  0
  5  6  1  0
  6  7  1  0
  6 10  2  0
  8  9  2  0
  8 14  1  0
  9 10  1  0
  9 16  1  0
 11 14  1  0
 12 14  1  0
 13 14  1  0
M  END
$$$$

     RDKit          3D

 17 19  0  0  0  0  0  0  0  0999 V2000
    2.3975   26.7588   15.2790 C   0  0  0  0  0  0  0  0  0  0  0  0
    2.6252   25.7781   16.2158 C   0  0  0  0  0  0  0  0  0  0  0  0
    2.8211   25.4615    9.6944 C   0  0  0  0  0  0  0  0  0  0  0  0
    2.9513   24.0744    9.4644 C   0  0  0  0  0  0  0  0  0  0  0  0
    3.1622   26.8122   14.1129 C   0  0  0  0  0  0  0  0  0  0  0  0
    3.6196   24.8100   16.0231 C   0  0  0  0  0  0  0  0  0  0  0  0
    3.4676   26.0498   10.7960 C   0  0  0  0  0  0  0  0  0  0  0  0
    3.7538   23.2959   10.3230 C   0  0  0  0  0  0  0  0  0  0  0  0
    4.1385   25.8280   13.8816 C   0  0  0  0  0  0  0  0  0  0  0  0
    4.3884   24.8442   14.8566 C   0  0  0  0  0  0  0  0  0  0  0  0
    4.2615   25.2621   11.6283 C   0  0  0  0  0  0  0  0  0  0  0  0
    4.4344   23.8981   11.3923 C   0  0  0  0  0  0  0  0  0  0  0  0
    4.9263   22.9525   13.6801 C   0  0  0  0  0  0  0  0  0  0  0  0
    4.3879   21.9656   14.2054 O   0  0  0  0  0  0  0  0  0  0  0  0
    4.8784   25.8413   12.7056 O   0  0  0  0  0  0  0  0  0  0  0  0
    5.2423   23.1629   12.3115 O   0  0  0  0  0  0  0  0  0  0  0  0
    5.4048   23.9197   14.6143 O   0  0  0  0  0  0  0  0  0  0  0  0
  1  2  2  0
  1  5  1  0
  2  6  1  0
  3  4  2  0
  3  7  1  0
  4  8  1  0
  5  9  1  0
  6 10  1  0
  7 11  2  0
  8 12  2  0
  9 10  2  0
  9 15  1  0
 10 17  1  0
 11 12  1  0
 11 15  1  0
 12 16  1  0
 13 14  2  0
 13 16  1  0
 13 17  1  0
M  END
$$$$

     RDKit          3D

 13 14  0  0  0  0  0  0  0  0999 V2000
    1.8727   27.0306   13.8625 C   0  0  0  0  0  0  0  0  0  0  0  0
    1.7710   27.1633   15.2548 C   0  0  0  0  0  0  0  0  0  0  0  0
    2.9123   26.8934   15.9147 C   0  0  0  0  0  0  0  0  0  0  0  0
    3.1108   24.7724   10.0525 C   0  0  0  0  0  0  0  0  0  0  0  0
    3.0484   26.3747   13.3644 C   0  0  1  0  0  0  0  0  0  0  0  0
    3.1651   26.1432   11.9220 C   0  0  0  0  0  0  0  0  0  0  0  0
    3.4785   25.8139    9.2514 C   0  0  0  0  0  0  0  0  0  0  0  0
    3.5881   27.2162   11.1280 C   0  0  0  0  0  0  0  0  0  0  0  0
    3.7690   27.0326    9.8109 C   0  0  0  0  0  0  0  0  0  0  0  0
    4.3553   26.5881   14.0468 C   0  0  0  0  0  0  0  0  0  0  0  0
    2.9115   24.9240   11.3823 N   0  0  0  0  0  0  0  0  0  0  0  0
    4.1717   26.7870   15.4070 N   0  0  0  0  0  0  0  0  0  0  0  0
    2.9604   23.2602    9.3299 S   0  0  0  0  0  0  0  0  0  0  0  0
  1  2  1  0
  1  5  1  0
  2  3  1  0
  3 12  1  0
  4  7  1  0
  4 11  1  0
  4 13  2  0
  5  6  1  6
  5 10  1  0
  6  8  1  0
  6 11  2  0
  7  9  1  0
  8  9  2  0
 10 12  1  0
M  END
$$$$

     RDKit          3D

 12 12  0  0  0  0  0  0  0  0999 V2000
    2.3645   24.8740   13.5189 C   0  0  2  0  0  0  0  0  0  0  0  0
    2.7289   24.1706   12.2174 C   0  0  0  0  0  0  0  0  0  0  0  0
    3.1396   25.0976   11.1683 C   0  0  1  0  0  0  0  0  0  0  0  0
    3.1335   26.1247   13.8887 C   0  0  2  0  0  0  0  0  0  0  0  0
    3.2984   24.6250    9.7797 C   0  0  0  0  0  0  0  0  0  0  0  0
    3.4543   26.8697   12.6026 C   0  0  0  0  0  0  0  0  0  0  0  0
    4.1659   25.9512   15.1095 C   0  0  0  0  0  0  0  0  0  0  0  0
    2.2458   23.7646    9.4737 O   0  0  0  0  0  0  0  0  0  0  0  0
    2.3446   23.9821   14.5684 O   0  0  0  0  0  0  0  0  0  0  0  0
    2.1793   27.0437   14.5403 O   0  0  0  0  0  0  0  0  0  0  0  0
    2.9819   26.4201   11.3424 O   0  0  0  0  0  0  0  0  0  0  0  0
    5.3408   26.8232   14.9727 O   0  0  0  0  0  0  0  0  0  0  0  0
  1  2  1  0
  1  4  1  0
  1  9  1  1
  2  3  1  0
  3  5  1  6
  3 11  1  0
  4  6  1  0
  4  7  1  0
  4 10  1  1
  5  8  1  0
  6 11  1  0
  7 12  1  0
M  END
$$$$

     RDKit          3D

 17 18  0  0  0  0  0  0  0  0999 V2000
    2.0322   26.0004   15.5784 C   0  0  0  0  0  0  0  0  0  0  0  0
    2.3999   25.7772   12.7648 C   0  0  0  0  0  0  0  0  0  0  0  0
    2.1902   27.1111   13.4160 C   0  0  0  0  0  0  0  0  0  0  0  0
    2.5846   24.7068   15.0505 C   0  0  0  0  0  0  0  0  0  0  0  0
    2.6242   27.2042   14.8363 C   0  0  0  0  0  0  0  0  0  0  0  0
    2.8785   24.7995   10.5294 C   0  0  0  0  0  0  0  0  0  0  0  0
    2.9944   25.8863   11.3852 C   0  0  0  0  0  0  0  0  0  0  0  0
    3.3435   24.8910    9.2093 C   0  0  0  0  0  0  0  0  0  0  0  0
    3.2246   24.8449   13.6646 C   0  0  0  0  0  0  0  0  0  0  0  0
    3.5517   27.0521   10.8922 C   0  0  0  0  0  0  0  0  0  0  0  0
    3.9946   27.1010    9.5593 C   0  0  0  0  0  0  0  0  0  0  0  0
    2.2773   23.6557   10.8723 O   0  0  0  0  0  0  0  0  0  0  0  0
    3.5868   29.5393    9.1729 O   0  0  0  0  0  0  0  0  0  0  0  0
    3.9235   26.0400    8.7983 O   0  0  0  0  0  0  0  0  0  0  0  0
    4.7873   28.3540    7.3759 O   0  0  0  0  0  0  0  0  0  0  0  0
    5.8843   28.8902    9.4905 O   0  0  0  0  0  0  0  0  0  0  0  0
    4.6024   28.5354    8.8760 S   0  0  0  0  0  0  0  0  0  0  0  0
  1  4  1  0
  1  5  1  0
  2  3  1  0
  2  7  1  0
  2  9  1  0
  3  5  1  0
  4  9  1  0
  6  7  2  0
  6  8  1  0
  6 12  1  0
  7 10  1  0
  8 14  1  0
 10 11  2  0
 11 14  1  0
 11 17  1  0
 13 17  1  0
 15 17  1  0
 16 17  1  0
M  END
$$$$

     RDKit          3D

 11 12  0  0  0  0  0  0  0  0999 V2000
    2.3309   25.9919   15.6694 C   0  0  0  0  0  0  0  0  0  0  0  0
    2.2888   27.2735   15.1524 C   0  0  0  0  0  0  0  0  0  0  0  0
    2.5861   24.9120   14.8999 C   0  0  0  0  0  0  0  0  0  0  0  0
    2.4759   27.4691   13.7908 C   0  0  0  0  0  0  0  0  0  0  0  0
    2.7308   25.0690   13.5106 C   0  0  0  0  0  0  0  0  0  0  0  0
    2.6980   26.3731   12.9488 C   0  0  0  0  0  0  0  0  0  0  0  0
    3.1317   24.1665   11.3877 C   0  0  0  0  0  0  0  0  0  0  0  0
    2.9175   26.5317   11.5663 C   0  0  0  0  0  0  0  0  0  0  0  0
    3.4824   25.5754    9.3739 C   0  0  0  0  0  0  0  0  0  0  0  0
    2.9105   23.9810   12.6992 N   0  0  0  0  0  0  0  0  0  0  0  0
    3.1450   25.4164   10.7975 N   0  0  0  0  0  0  0  0  0  0  0  0
  1  2  2  0
  1  3  1  0
  2  4  1  0
  3  5  2  0
  4  6  2  0
  5  6  1  0
  5 10  1  0
  6  8  1  0
  7 10  2  0
  7 11  1  0
  8 11  1  0
  9 11  1  0
M  END
$$$$

     RDKit          3D

 23 26  0  0  0  0  0  0  0  0999 V2000
    1.3360   27.7119   14.5727 C   0  0  0  0  0  0  0  0  0  0  0  0
    1.7099   26.9780   13.4887 C   0  0  0  0  0  0  0  0  0  0  0  0
    2.1555   27.7259   15.7155 C   0  0  0  0  0  0  0  0  0  0  0  0
    2.8881   26.1848   13.5380 C   0  0  0  0  0  0  0  0  0  0  0  0
    3.1539   23.3458   11.1957 C   0  0  0  0  0  0  0  0  0  0  0  0
    2.9489   24.1223   12.2832 C   0  0  0  0  0  0  0  0  0  0  0  0
    3.1574   25.4753   12.2720 C   0  0  0  0  0  0  0  0  0  0  0  0
    3.2680   26.8814   15.7996 C   0  0  0  0  0  0  0  0  0  0  0  0
    3.4865   23.9171    9.9706 C   0  0  0  0  0  0  0  0  0  0  0  0
    3.6437   26.0625   14.7087 C   0  0  0  0  0  0  0  0  0  0  0  0
    3.5306   26.1602   11.0831 C   0  0  0  0  0  0  0  0  0  0  0  0
    3.6953   25.3598    9.9498 C   0  0  0  0  0  0  0  0  0  0  0  0
    3.6966   27.5594   10.9534 C   0  0  0  0  0  0  0  0  0  0  0  0
    4.1157   25.9408    8.7574 C   0  0  0  0  0  0  0  0  0  0  0  0
    4.0487   28.1140    9.7322 C   0  0  0  0  0  0  0  0  0  0  0  0
    4.2783   27.3074    8.6567 C   0  0  0  0  0  0  0  0  0  0  0  0
    4.6222   24.0006   15.7187 C   0  0  0  0  0  0  0  0  0  0  0  0
    4.7827   25.1298   14.8807 C   0  0  0  0  0  0  0  0  0  0  0  0
    5.9572   25.2389   14.1891 C   0  0  0  0  0  0  0  0  0  0  0  0
    6.7390   23.2159   15.1556 C   0  0  0  0  0  0  0  0  0  0  0  0
    6.9430   24.2906   14.3217 C   0  0  0  0  0  0  0  0  0  0  0  0
    3.6742   23.2863    8.8359 O   0  0  0  0  0  0  0  0  0  0  0  0
    5.5823   23.0952   15.8609 N   0  0  0  0  0  0  0  0  0  0  0  0
  1  2  2  0
  1  3  1  0
  2  4  1  0
  3  8  2  0
  4  7  1  0
  4 10  2  0
  5  6  2  0
  5  9  1  0
  6  7  1  0
  7 11  2  0
  8 10  1  0
  9 12  2  0
  9 22  1  0
 10 18  1  0
 11 12  1  0
 11 13  1  0
 12 14  1  0
 13 15  2  0
 14 16  2  0
 15 16  1  0
 17 18  2  0
 17 23  1  0
 18 19  1  0
 19 21  2  0
 20 21  1  0
 20 23  2  0
M  END
$$$$

     RDKit          3D

 14 15  0  0  0  0  0  0  0  0999 V2000
    2.3730   26.8749   15.9505 C   0  0  0  0  0  0  0  0  0  0  0  0
    2.4221   24.6443    9.7511 C   0  0  0  0  0  0  0  0  0  0  0  0
    2.5504   27.1220   14.6073 C   0  0  0  0  0  0  0  0  0  0  0  0
    3.1598   25.9009   16.5942 C   0  0  0  0  0  0  0  0  0  0  0  0
    3.4234   26.0791   11.4760 C   0  0  0  0  0  0  0  0  0  0  0  0
    3.4143   26.6267   10.2006 C   0  0  0  0  0  0  0  0  0  0  0  0
    3.5395   26.4475   13.8862 C   0  0  0  0  0  0  0  0  0  0  0  0
    3.9087   27.9526    9.8584 C   0  0  0  0  0  0  0  0  0  0  0  0
    4.0670   25.1727   15.8446 C   0  0  0  0  0  0  0  0  0  0  0  0
    4.2744   25.4475   14.5200 C   0  0  0  0  0  0  0  0  0  0  0  0
    1.8015   23.7294    8.9669 N   0  0  0  0  0  0  0  0  0  0  0  0
    2.9050   25.7833    9.2547 N   0  0  0  0  0  0  0  0  0  0  0  0
    3.8946   26.8109   12.5662 N   0  0  0  0  0  0  0  0  0  0  0  0
    2.6741   24.4897   11.4169 S   0  0  0  0  0  0  0  0  0  0  0  0
  1  3  2  0
  1  4  1  0
  2 11  2  0
  2 12  1  0
  2 14  1  0
  3  7  1  0
  4  9  1  0
  5  6  2  0
  5 13  1  0
  5 14  1  0
  6  8  1  0
  6 12  1  0
  7 10  1  0
  7 13  1  0
  9 10  2  0
M  END
$$$$

     RDKit          3D

 10 10  0  0  0  0  0  0  0  0999 V2000
    2.3375   24.5427   12.9066 C   0  0  0  0  0  0  0  0  0  0  0  0
    2.4267   24.7843   14.2677 C   0  0  0  0  0  0  0  0  0  0  0  0
    2.9442   25.0659   10.5372 C   0  0  0  0  0  0  0  0  0  0  0  0
    3.0340   25.3618   11.9919 C   0  0  0  0  0  0  0  0  0  0  0  0
    3.1937   25.8358   14.7276 C   0  0  0  0  0  0  0  0  0  0  0  0
    3.2489   26.1211   16.1990 C   0  0  0  0  0  0  0  0  0  0  0  0
    3.7713   26.4439   12.4603 C   0  0  0  0  0  0  0  0  0  0  0  0
    3.8666   26.6800   13.8371 C   0  0  0  0  0  0  0  0  0  0  0  0
    2.9907   25.9613    9.6956 O   0  0  0  0  0  0  0  0  0  0  0  0
    2.7037   23.7672   10.1224 N   0  0  0  0  0  0  0  0  0  0  0  0
  1  2  2  0
  1  4  1  0
  2  5  1  0
  3  4  1  0
  3  9  2  0
  3 10  1  0
  4  7  2  0
  5  6  1  0
  5  8  2  0
  7  8  1  0
M  END
$$$$

     RDKit          3D

 15 17  0  0  0  0  0  0  0  0999 V2000
    2.3330   27.1470   13.7663 C   0  0  0  0  0  0  0  0  0  0  0  0
    2.3725   26.9189   15.1988 C   0  0  0  0  0  0  0  0  0  0  0  0
    2.7865   26.1128   12.8738 C   0  0  0  0  0  0  0  0  0  0  0  0
    2.8566   26.2472   11.4540 C   0  0  0  0  0  0  0  0  0  0  0  0
    3.0310   24.6318   14.8780 C   0  0  0  0  0  0  0  0  0  0  0  0
    3.2241   24.8815   13.4127 C   0  0  0  0  0  0  0  0  0  0  0  0
    3.3708   25.2505    9.2155 C   0  0  0  0  0  0  0  0  0  0  0  0
    3.2964   25.1817   10.6293 C   0  0  0  0  0  0  0  0  0  0  0  0
    3.8246   24.1351    8.4720 C   0  0  0  0  0  0  0  0  0  0  0  0
    3.7471   23.9927   11.3017 C   0  0  0  0  0  0  0  0  0  0  0  0
    4.2226   22.9771    9.1705 C   0  0  0  0  0  0  0  0  0  0  0  0
    4.2043   22.9179   10.5561 C   0  0  0  0  0  0  0  0  0  0  0  0
    3.4098   23.4732   15.3142 O   0  0  0  0  0  0  0  0  0  0  0  0
    3.7446   23.9085   12.6626 O   0  0  0  0  0  0  0  0  0  0  0  0
    2.5960   25.6079   15.6618 N   0  0  0  0  0  0  0  0  0  0  0  0
  1  2  1  0
  1  3  1  0
  2 15  2  0
  3  4  1  0
  3  6  2  0
  4  8  1  0
  5  6  1  0
  5 13  2  0
  5 15  1  0
  6 14  1  0
  7  8  2  0
  7  9  1  0
  8 10  1  0
  9 11  2  0
 10 12  2  0
 10 14  1  0
 11 12  1  0
M  END
$$$$

     RDKit          3D

  9  9  0  0  0  0  0  0  0  0999 V2000
    1.8193   25.6974   15.4863 C   0  0  0  0  0  0  0  0  0  0  0  0
    2.2664   24.7487   14.3895 C   0  0  0  0  0  0  0  0  0  0  0  0
    2.6458   24.0116   11.5789 C   0  0  0  0  0  0  0  0  0  0  0  0
    2.8594   25.3451   12.0198 C   0  0  0  0  0  0  0  0  0  0  0  0
    2.7620   26.9083   15.3258 C   0  0  0  0  0  0  0  0  0  0  0  0
    3.3048   26.8576   13.9130 C   0  0  0  0  0  0  0  0  0  0  0  0
    3.4448   23.4074   10.5802 C   0  0  0  0  0  0  0  0  0  0  0  0
    3.1647   26.3259   11.2071 O   0  0  0  0  0  0  0  0  0  0  0  0
    2.7745   25.6304   13.3674 N   0  0  0  0  0  0  0  0  0  0  0  0
  1  2  1  0
  1  5  1  0
  2  9  1  0
  3  4  1  0
  3  7  1  0
  4  8  2  0
  4  9  1  0
  5  6  1  0
  6  9  1  0
M  END
$$$$

     RDKit          3D

 19 21  0  0  0  0  0  0  0  0999 V2000
    2.1535   26.9047   14.6158 C   0  0  0  0  0  0  0  0  0  0  0  0
    2.4503   25.0155    9.0669 C   0  0  0  0  0  0  0  0  0  0  0  0
    2.9114   23.7487    8.8195 C   0  0  0  0  0  0  0  0  0  0  0  0
    2.7500   26.2237   15.6586 C   0  0  0  0  0  0  0  0  0  0  0  0
    2.7609   26.8383   13.3725 C   0  0  0  0  0  0  0  0  0  0  0  0
    2.9668   25.7607   10.1177 C   0  0  0  0  0  0  0  0  0  0  0  0
    3.9808   25.2228   10.8896 C   0  0  0  0  0  0  0  0  0  0  0  0
    3.9163   25.4919   15.4996 C   0  0  0  0  0  0  0  0  0  0  0  0
    3.9288   26.1033   13.1724 C   0  0  0  0  0  0  0  0  0  0  0  0
    4.4172   23.8907   10.6302 C   0  0  0  0  0  0  0  0  0  0  0  0
    4.5006   25.4003   14.2346 C   0  0  0  0  0  0  0  0  0  0  0  0
    5.7768   24.6529   14.0032 C   0  0  0  0  0  0  0  0  0  0  0  0
    5.9369   23.5460   13.0463 C   0  0  0  0  0  0  0  0  0  0  0  0
    6.9011   25.0610   14.7106 C   0  0  0  0  0  0  0  0  0  0  0  0
    7.1114   22.8180   13.0813 C   0  0  0  0  0  0  0  0  0  0  0  0
    8.0704   24.3215   14.6731 C   0  0  0  0  0  0  0  0  0  0  0  0
    8.1717   23.1990   13.8909 C   0  0  0  0  0  0  0  0  0  0  0  0
    4.5048   26.0627   11.9140 O   0  0  0  0  0  0  0  0  0  0  0  0
    3.8444   23.1717    9.6102 N   0  0  0  0  0  0  0  0  0  0  0  0
  1  4  2  0
  1  5  1  0
  2  3  2  0
  2  6  1  0
  3 19  1  0
  4  8  1  0
  5  9  2  0
  6  7  2  0
  7 10  1  0
  7 18  1  0
  8 11  2  0
  9 11  1  0
  9 18  1  0
 10 19  2  0
 11 12  1  0
 12 13  2  0
 12 14  1  0
 13 15  1  0
 14 16  2  0
 15 17  2  0
 16 17  1  0
M  END
$$$$

     RDKit          3D

 16 17  0  0  0  0  0  0  0  0999 V2000
    2.0757   26.8569   14.0014 C   0  0  0  0  0  0  0  0  0  0  0  0
    2.1333   27.1741   15.3726 C   0  0  0  0  0  0  0  0  0  0  0  0
    2.5201   24.4189   10.0771 C   0  0  0  0  0  0  0  0  0  0  0  0
    2.5088   24.6558   11.5087 C   0  0  0  0  0  0  0  0  0  0  0  0
    3.0891   25.8698   11.9694 C   0  0  0  0  0  0  0  0  0  0  0  0
    3.1995   26.3118   13.3747 C   0  0  0  0  0  0  0  0  0  0  0  0
    3.3353   27.0998   16.0527 C   0  0  0  0  0  0  0  0  0  0  0  0
    3.5162   26.4826    9.7013 C   0  0  0  0  0  0  0  0  0  0  0  0
    3.6098   26.7275   11.0387 C   0  0  0  0  0  0  0  0  0  0  0  0
    4.1269   27.4589    8.7412 C   0  0  0  0  0  0  0  0  0  0  0  0
    4.4354   26.3115   14.0572 C   0  0  0  0  0  0  0  0  0  0  0  0
    4.5167   26.7185   15.4009 C   0  0  0  0  0  0  0  0  0  0  0  0
    1.8859   23.9106   12.3512 O   0  0  0  0  0  0  0  0  0  0  0  0
    1.8872   23.4328    9.4192 N   0  0  0  0  0  0  0  0  0  0  0  0
    3.0237   25.3535    9.2304 N   0  0  0  0  0  0  0  0  0  0  0  0
    3.3297   27.4047   17.3487 F   0  0  0  0  0  0  0  0  0  0  0  0
  1  2  2  0
  1  6  1  0
  2  7  1  0
  3  4  1  0
  3 14  2  0
  3 15  1  0
  4  5  2  0
  4 13  1  0
  5  6  1  0
  5  9  1  0
  6 11  2  0
  7 12  2  0
  7 16  1  0
  8  9  1  0
  8 10  1  0
  8 15  2  0
 11 12  1  0
M  END
$$$$

     RDKit          3D

 11 10  0  0  0  0  0  0  0  0999 V2000
    2.8210   25.2585   12.8605 C   0  0  1  0  0  0  0  0  0  0  0  0
    2.9130   26.1458   15.6588 C   0  0  0  0  0  0  0  0  0  0  0  0
    2.9669   26.6128   13.1963 C   0  0  0  0  0  0  0  0  0  0  0  0
    3.1313   27.0105   14.6021 C   0  0  0  0  0  0  0  0  0  0  0  0
    3.4114   24.8866   11.6292 C   0  0  0  0  0  0  0  0  0  0  0  0
    3.8510   23.5026   11.3837 C   0  0  0  0  0  0  0  0  0  0  0  0
    1.6236   25.6971   15.7473 O   0  0  0  0  0  0  0  0  0  0  0  0
    3.4180   22.9243   10.3721 O   0  0  0  0  0  0  0  0  0  0  0  0
    3.6927   25.7233   10.8082 O   0  0  0  0  0  0  0  0  0  0  0  0
    4.6418   22.8603   12.2110 O   0  0  0  0  0  0  0  0  0  0  0  0
    2.2999   24.3182   13.6644 N   0  0  0  0  0  0  0  0  0  0  0  0
  1  3  1  0
  1  5  1  0
  1 11  1  1
  2  4  1  0
  2  7  1  0
  3  4  2  3
  5  6  1  0
  5  9  2  0
  6  8  2  0
  6 10  1  0
M  END
$$$$

     RDKit          3D

 19 20  0  0  0  0  0  0  0  0999 V2000
    2.3751   26.9838   13.5078 C   0  0  0  0  0  0  0  0  0  0  0  0
    2.2538   27.1722   14.9787 C   0  0  0  0  0  0  0  0  0  0  0  0
    2.6325   24.7969   15.3697 C   0  0  0  0  0  0  0  0  0  0  0  0
    2.8691   24.5787   10.7836 C   0  0  0  0  0  0  0  0  0  0  0  0
    3.0174   24.5928   13.8728 C   0  0  2  0  0  0  0  0  0  0  0  0
    2.9357   25.7158   11.6184 C   0  0  0  0  0  0  0  0  0  0  0  0
    3.0969   26.2005   15.7631 C   0  0  2  0  0  0  0  0  0  0  0  0
    3.2700   24.6390    9.4535 C   0  0  0  0  0  0  0  0  0  0  0  0
    3.4058   26.9271   11.0266 C   0  0  0  0  0  0  0  0  0  0  0  0
    3.7692   25.7896    8.9162 C   0  0  0  0  0  0  0  0  0  0  0  0
    3.8422   26.9353    9.6979 C   0  0  0  0  0  0  0  0  0  0  0  0
    4.5195   24.3036   13.7582 C   0  0  0  0  0  0  0  0  0  0  0  0
    2.4533   23.4529   11.2239 O   0  0  0  0  0  0  0  0  0  0  0  0
    2.8844   26.4483   17.1332 O   0  0  0  0  0  0  0  0  0  0  0  0
    3.3979   29.4762    9.1990 O   0  0  0  0  0  0  0  0  0  0  0  0
    4.7575   28.1428    7.5515 O   0  0  0  0  0  0  0  0  0  0  0  0
    5.6104   28.8638    9.7637 O   0  0  0  0  0  0  0  0  0  0  0  0
    2.5297   25.6581   12.9919 N   0  0  0  0  0  0  0  0  0  0  0  0
    4.4453   28.4030    9.0062 S   0  0  0  0  0  0  0  0  0  0  0  0
  1  2  1  0
  1 18  1  0
  2  7  1  0
  3  5  1  0
  3  7  1  0
  4  6  1  0
  4  8  1  0
  4 13  2  0
  5 12  1  1
  5 18  1  0
  6  9  1  0
  6 18  1  0
  7 14  1  1
  8 10  2  0
  9 11  2  0
 10 11  1  0
 11 19  1  0
 15 19  1  0
 16 19  1  0
 17 19  1  0
M  END
$$$$

     RDKit          3D

 12 13  0  0  0  0  0  0  0  0999 V2000
    2.1863   24.6711   14.2988 C   0  0  0  0  0  0  0  0  0  0  0  0
    2.3995   25.4751   15.3730 C   0  0  0  0  0  0  0  0  0  0  0  0
    2.6175   24.4602   10.7126 C   0  0  0  0  0  0  0  0  0  0  0  0
    2.5510   25.0573   13.0053 C   0  0  0  0  0  0  0  0  0  0  0  0
    3.1424   26.2917   12.7679 C   0  0  2  0  0  0  0  0  0  0  0  0
    2.9743   26.7123   15.1591 C   0  0  0  0  0  0  0  0  0  0  0  0
    3.1769   25.6886   10.4175 C   0  0  0  0  0  0  0  0  0  0  0  0
    3.3357   27.1436   13.8833 C   0  0  0  0  0  0  0  0  0  0  0  0
    3.4391   26.6287   11.4131 C   0  0  0  0  0  0  0  0  0  0  0  0
    2.3087   23.6035    9.8093 O   0  0  0  0  0  0  0  0  0  0  0  0
    2.3329   24.1855   12.0029 N   0  0  0  0  0  0  0  0  0  0  0  0
    3.0683   27.6535   16.5215 Cl  0  0  0  0  0  0  0  0  0  0  0  0
  1  2  2  0
  1  4  1  0
  2  6  1  0
  3  7  1  0
  3 10  2  0
  3 11  1  0
  4  5  1  0
  4 11  2  0
  5  8  1  6
  5  9  1  0
  6  8  2  0
  6 12  1  0
  7  9  2  0
M  END
$$$$

     RDKit          3D

 20 23  0  0  0  0  0  0  0  0999 V2000
    2.1202   27.6963   14.2794 C   0  0  0  0  0  0  0  0  0  0  0  0
    2.3876   26.9465   13.1323 C   0  0  0  0  0  0  0  0  0  0  0  0
    2.5741   27.2040   15.5071 C   0  0  0  0  0  0  0  0  0  0  0  0
    2.9074   24.6600    9.6340 C   0  0  0  0  0  0  0  0  0  0  0  0
    2.8339   25.4598   10.7871 C   0  0  0  0  0  0  0  0  0  0  0  0
    3.1031   25.7353   13.2104 C   0  0  0  0  0  0  0  0  0  0  0  0
    3.3111   24.9695   12.0043 C   0  0  0  0  0  0  0  0  0  0  0  0
    3.3365   26.0490   15.6188 C   0  0  0  0  0  0  0  0  0  0  0  0
    3.4813   23.3961    9.7135 C   0  0  0  0  0  0  0  0  0  0  0  0
    3.5580   25.2840   14.4464 C   0  0  0  0  0  0  0  0  0  0  0  0
    3.8901   23.7318   12.1019 C   0  0  0  0  0  0  0  0  0  0  0  0
    3.9904   22.9063   10.9434 C   0  0  0  0  0  0  0  0  0  0  0  0
    4.2720   23.9953   14.4805 C   0  0  0  0  0  0  0  0  0  0  0  0
    4.4404   22.8865    7.5429 C   0  0  0  0  0  0  0  0  0  0  0  0
    4.7877   21.9550   13.4178 C   0  0  0  0  0  0  0  0  0  0  0  0
    4.9088   23.5656   15.6527 C   0  0  0  0  0  0  0  0  0  0  0  0
    5.3333   21.4722   14.5966 C   0  0  0  0  0  0  0  0  0  0  0  0
    5.4225   22.2949   15.7085 C   0  0  0  0  0  0  0  0  0  0  0  0
    3.4789   22.5526    8.5753 N   0  0  0  0  0  0  0  0  0  0  0  0
    4.2975   23.2143   13.3661 N   0  0  0  0  0  0  0  0  0  0  0  0
  1  2  2  0
  1  3  1  0
  2  6  1  0
  3  8  2  0
  4  5  1  0
  4  9  2  0
  5  7  1  0
  6  7  1  0
  6 10  2  0
  7 11  2  0
  8 10  1  0
  9 12  1  0
  9 19  1  0
 10 13  1  0
 11 12  1  0
 11 20  1  0
 13 16  2  0
 13 20  1  0
 14 19  1  0
 15 17  2  0
 15 20  1  0
 16 18  1  0
 17 18  1  0
M  END
$$$$

     RDKit          3D

 15 16  0  0  0  0  0  0  0  0999 V2000
    2.3520   26.4124   16.1531 C   0  0  0  0  0  0  0  0  0  0  0  0
    2.3891   26.9753   14.8436 C   0  0  0  0  0  0  0  0  0  0  0  0
    2.6429   24.7224    9.8840 C   0  0  0  0  0  0  0  0  0  0  0  0
    3.2379   25.4034   16.4633 C   0  0  0  0  0  0  0  0  0  0  0  0
    3.3142   26.4526   13.9194 C   0  0  0  0  0  0  0  0  0  0  0  0
    3.3978   27.1021   12.5827 C   0  0  0  0  0  0  0  0  0  0  0  0
    3.4982   26.7530   10.1701 C   0  0  0  0  0  0  0  0  0  0  0  0
    4.1067   24.8922   15.5229 C   0  0  0  0  0  0  0  0  0  0  0  0
    4.1754   25.3988   14.2317 C   0  0  0  0  0  0  0  0  0  0  0  0
    2.1504   23.5450    9.3430 N   0  0  0  0  0  0  0  0  0  0  0  0
    3.2127   25.7877    9.2318 N   0  0  0  0  0  0  0  0  0  0  0  0
    3.2552   26.3388   11.4244 N   0  0  0  0  0  0  0  0  0  0  0  0
    3.9470   28.0727    9.8940 N   0  0  0  0  0  0  0  0  0  0  0  0
    2.6056   24.8611   11.5218 S   0  0  0  0  0  0  0  0  0  0  0  0
    3.3678   24.5330   18.0721 Cl  0  0  0  0  0  0  0  0  0  0  0  0
  1  2  2  0
  1  4  1  0
  2  5  1  0
  3 10  2  0
  3 11  1  0
  3 14  1  0
  4  8  2  0
  4 15  1  0
  5  6  1  0
  5  9  2  0
  6 12  1  0
  7 11  1  0
  7 12  1  0
  7 13  2  0
  8  9  1  0
 12 14  1  0
M  END
$$$$

     RDKit          3D

 11 12  0  0  0  0  0  0  0  0999 V2000
    2.0216   25.6115   15.9076 C   0  0  0  0  0  0  0  0  0  0  0  0
    2.3901   25.6772   14.4360 C   0  0  0  0  0  0  0  0  0  0  0  0
    2.6210   24.5196   13.7076 C   0  0  0  0  0  0  0  0  0  0  0  0
    2.4256   26.9435   13.7628 C   0  0  0  0  0  0  0  0  0  0  0  0
    2.8572   24.6021   12.3262 C   0  0  0  0  0  0  0  0  0  0  0  0
    2.8679   25.8901   11.7486 C   0  0  0  0  0  0  0  0  0  0  0  0
    3.1341   25.1300   16.9018 C   0  0  0  0  0  0  0  0  0  0  0  0
    3.1654   24.4231   10.1730 C   0  0  0  0  0  0  0  0  0  0  0  0
    2.6667   27.0058   12.4678 N   0  0  0  0  0  0  0  0  0  0  0  0
    3.0650   23.6973   11.3017 N   0  0  0  0  0  0  0  0  0  0  0  0
    3.0277   25.7387   10.4127 N   0  0  0  0  0  0  0  0  0  0  0  0
  1  2  1  0
  1  7  1  0
  2  3  2  0
  2  4  1  0
  3  5  1  0
  4  9  2  0
  5  6  2  0
  5 10  1  0
  6  9  1  0
  6 11  1  0
  8 10  1  0
  8 11  1  0
M  END
$$$$

     RDKit          3D

 14 15  0  0  0  0  0  0  0  0999 V2000
    2.3942   27.1098   13.4697 C   0  0  0  0  0  0  0  0  0  0  0  0
    2.2127   27.0517   14.8503 C   0  0  0  0  0  0  0  0  0  0  0  0
    2.4705   25.9085   15.6181 C   0  0  0  0  0  0  0  0  0  0  0  0
    2.9052   24.7746   14.8952 C   0  0  0  0  0  0  0  0  0  0  0  0
    2.8482   25.9979   12.7962 C   0  0  0  0  0  0  0  0  0  0  0  0
    3.0530   24.8425   13.4996 C   0  0  0  0  0  0  0  0  0  0  0  0
    3.2341   24.7686   10.6807 C   0  0  0  0  0  0  0  0  0  0  0  0
    3.2175   25.9885   11.3645 C   0  0  0  0  0  0  0  0  0  0  0  0
    3.6267   27.1510   10.6788 C   0  0  0  0  0  0  0  0  0  0  0  0
    3.6629   24.6865    9.3823 C   0  0  0  0  0  0  0  0  0  0  0  0
    4.1017   25.8287    8.6753 C   0  0  0  0  0  0  0  0  0  0  0  0
    4.0785   27.0496    9.3560 C   0  0  0  0  0  0  0  0  0  0  0  0
    3.1685   23.6276   15.4471 O   0  0  0  0  0  0  0  0  0  0  0  0
    3.6354   23.4933    8.7597 O   0  0  0  0  0  0  0  0  0  0  0  0
  1  2  2  0
  1  5  1  0
  2  3  1  0
  3  4  2  0
  4  6  1  0
  4 13  1  0
  5  6  2  0
  5  8  1  0
  7  8  2  0
  7 10  1  0
  8  9  1  0
  9 12  2  0
 10 11  2  0
 10 14  1  0
 11 12  1  0
M  END
$$$$

     RDKit          3D

 14 16  0  0  0  0  0  0  0  0999 V2000
    2.6418   26.4108   12.1326 C   0  0  0  0  0  0  0  0  0  0  0  0
    2.5745   26.9432   15.7917 C   0  0  0  0  0  0  0  0  0  0  0  0
    2.4283   27.1959   14.4125 C   0  0  0  0  0  0  0  0  0  0  0  0
    2.9092   25.4072   11.1663 C   0  0  0  0  0  0  0  0  0  0  0  0
    2.7220   26.1707   13.4707 C   0  0  0  0  0  0  0  0  0  0  0  0
    2.9810   24.6896    8.9513 C   0  0  0  0  0  0  0  0  0  0  0  0
    3.1271   24.9049   13.9293 C   0  0  0  0  0  0  0  0  0  0  0  0
    2.9207   25.6264   16.1692 C   0  0  0  0  0  0  0  0  0  0  0  0
    3.3719   24.1352   11.6438 C   0  0  0  0  0  0  0  0  0  0  0  0
    3.4349   23.4400    9.3651 C   0  0  0  0  0  0  0  0  0  0  0  0
    3.4470   23.9041   13.0030 C   0  0  0  0  0  0  0  0  0  0  0  0
    2.7694   25.6599    9.8697 N   0  0  0  0  0  0  0  0  0  0  0  0
    3.1717   24.6581   15.2649 N   0  0  0  0  0  0  0  0  0  0  0  0
    3.6339   23.1826   10.6810 N   0  0  0  0  0  0  0  0  0  0  0  0
  1  4  2  0
  1  5  1  0
  2  3  1  0
  2  8  2  0
  3  5  2  0
  4  9  1  0
  4 12  1  0
  5  7  1  0
  6 10  1  0
  6 12  2  0
  7 11  1  0
  7 13  2  0
  8 13  1  0
  9 11  2  0
  9 14  1  0
 10 14  2  0
M  END
$$$$

     RDKit          3D

 17 18  0  0  0  0  0  0  0  0999 V2000
    1.6473   26.0236   15.4696 C   0  0  0  0  0  0  0  0  0  0  0  0
    2.0148   26.0687   14.0589 C   0  0  0  0  0  0  0  0  0  0  0  0
    2.8170   24.8353   13.6261 C   0  0  1  0  0  0  0  0  0  0  0  0
    3.0935   24.9043   12.0648 C   0  0  0  0  0  0  0  0  0  0  0  0
    3.1235   26.1327   11.3851 C   0  0  0  0  0  0  0  0  0  0  0  0
    2.9294   26.0653   16.2998 C   0  0  0  0  0  0  0  0  0  0  0  0
    3.2733   23.6696   11.3719 C   0  0  0  0  0  0  0  0  0  0  0  0
    3.3515   26.1681   10.0177 C   0  0  0  0  0  0  0  0  0  0  0  0
    3.5060   23.7370    9.9311 C   0  0  0  0  0  0  0  0  0  0  0  0
    3.5790   24.7364   16.0993 C   0  0  0  0  0  0  0  0  0  0  0  0
    3.5750   24.9951    9.2963 C   0  0  0  0  0  0  0  0  0  0  0  0
    4.0208   24.4579   14.5676 C   0  0  2  0  0  0  0  0  0  0  0  0
    5.3762   25.2020   14.3326 C   0  0  0  0  0  0  0  0  0  0  0  0
    5.5133   26.6681   13.8424 C   0  0  0  0  0  0  0  0  0  0  0  0
    6.5144   27.4805   14.6593 C   0  0  0  0  0  0  0  0  0  0  0  0
    3.7094   22.5558    9.1753 O   0  0  0  0  0  0  0  0  0  0  0  0
    4.1733   23.0169   14.5521 N   0  0  0  0  0  0  0  0  0  0  0  0
  1  2  1  0
  1  6  1  0
  2  3  1  0
  3  4  1  6
  3 12  1  0
  4  5  2  0
  4  7  1  0
  5  8  1  0
  6 10  1  0
  7  9  2  0
  8 11  2  0
  9 11  1  0
  9 16  1  0
 10 12  1  0
 12 13  1  0
 12 17  1  1
 13 14  1  0
 14 15  1  0
M  END
$$$$

     RDKit          3D

 13 13  0  0  0  0  0  0  0  0999 V2000
    1.5062   25.5249   15.2932 C   0  0  0  0  0  0  0  0  0  0  0  0
    2.0491   26.8853   14.9002 C   0  0  2  0  0  0  0  0  0  0  0  0
    2.3510   27.1442   13.4894 C   0  0  0  0  0  0  0  0  0  0  0  0
    2.8031   25.2517   10.4285 C   0  0  0  0  0  0  0  0  0  0  0  0
    3.0250   26.2753   11.3901 C   0  0  0  0  0  0  0  0  0  0  0  0
    3.3687   25.4143    9.1806 C   0  0  0  0  0  0  0  0  0  0  0  0
    3.2078   27.2310   15.8289 C   0  0  0  0  0  0  0  0  0  0  0  0
    3.7684   27.4139   11.0624 C   0  0  0  0  0  0  0  0  0  0  0  0
    4.2603   27.5061    9.7532 C   0  0  0  0  0  0  0  0  0  0  0  0
    2.0491   24.2130   10.7452 O   0  0  0  0  0  0  0  0  0  0  0  0
    2.4596   26.1268   12.6852 O   0  0  0  0  0  0  0  0  0  0  0  0
    2.9065   26.6749   17.0205 O   0  0  0  0  0  0  0  0  0  0  0  0
    4.0844   26.5354    8.8615 N   0  0  0  0  0  0  0  0  0  0  0  0
  2  1  1  6
  2  3  1  0
  2  7  1  0
  3 11  1  0
  4  5  2  0
  4  6  1  0
  4 10  1  0
  5  8  1  0
  5 11  1  0
  6 13  2  0
  7 12  1  0
  8  9  2  0
  9 13  1  0
M  END
$$$$

     RDKit          3D

 10 10  0  0  0  0  0  0  0  0999 V2000
    2.5162   24.5063   10.6219 C   0  0  0  0  0  0  0  0  0  0  0  0
    2.4582   26.3486   13.0804 C   0  0  0  0  0  0  0  0  0  0  0  0
    2.6751   24.9545   13.0979 C   0  0  0  0  0  0  0  0  0  0  0  0
    2.6897   27.1288   14.2273 C   0  0  0  0  0  0  0  0  0  0  0  0
    3.1076   24.3438   14.2894 C   0  0  0  0  0  0  0  0  0  0  0  0
    3.0296   25.7915   10.1365 C   0  0  0  0  0  0  0  0  0  0  0  0
    3.0928   26.5135   15.4099 C   0  0  0  0  0  0  0  0  0  0  0  0
    3.2779   25.1293   15.4406 C   0  0  0  0  0  0  0  0  0  0  0  0
    2.1785   23.6624    9.7364 O   0  0  0  0  0  0  0  0  0  0  0  0
    2.4144   24.1495   11.9105 N   0  0  0  0  0  0  0  0  0  0  0  0
  1  6  1  0
  1  9  2  0
  1 10  1  0
  2  3  2  0
  2  4  1  0
  3  5  1  0
  3 10  1  0
  4  7  2  0
  5  8  2  0
  7  8  1  0
M  END
$$$$

     RDKit          3D

 23 26  0  0  0  0  0  0  0  0999 V2000
    1.8368   26.6314   14.7739 C   0  0  0  0  0  0  0  0  0  0  0  0
    2.8370   26.0773   14.0422 C   0  0  0  0  0  0  0  0  0  0  0  0
    3.1535   24.4629   10.7533 C   0  0  0  0  0  0  0  0  0  0  0  0
    3.0208   24.7282   12.0560 C   0  0  0  0  0  0  0  0  0  0  0  0
    2.9822   26.0140   12.5451 C   0  0  0  0  0  0  0  0  0  0  0  0
    3.1199   26.6579   10.1650 C   0  0  0  0  0  0  0  0  0  0  0  0
    3.0478   27.1088   11.6184 C   0  0  0  0  0  0  0  0  0  0  0  0
    3.2084   25.3941    9.8296 C   0  0  0  0  0  0  0  0  0  0  0  0
    3.1691   25.6287   16.2848 C   0  0  0  0  0  0  0  0  0  0  0  0
    3.4240   23.4664    8.7724 C   0  0  2  0  0  0  0  0  0  0  0  0
    3.6570   25.0455   17.5178 C   0  0  0  0  0  0  0  0  0  0  0  0
    3.7541   25.5248   14.9920 C   0  0  0  0  0  0  0  0  0  0  0  0
    3.9219   22.5012    7.8145 C   0  0  0  0  0  0  0  0  0  0  0  0
    4.5563   23.2462   14.7995 C   0  0  0  0  0  0  0  0  0  0  0  0
    4.8616   24.6352   14.7073 C   0  0  0  0  0  0  0  0  0  0  0  0
    5.5098   22.3215   14.4920 C   0  0  0  0  0  0  0  0  0  0  0  0
    6.1036   25.0198   14.2571 C   0  0  0  0  0  0  0  0  0  0  0  0
    6.7495   22.7682   14.1115 C   0  0  0  0  0  0  0  0  0  0  0  0
    7.1118   24.1034   13.9523 C   0  0  0  0  0  0  0  0  0  0  0  0
    3.3617   24.7444    8.6055 O   0  0  0  0  0  0  0  0  0  0  0  0
    2.1002   26.4275   16.0913 N   0  0  0  0  0  0  0  0  0  0  0  0
    2.8081   25.2007   18.7526 N   0  0  0  0  0  0  0  0  0  0  0  0
    3.2536   23.2306   10.1166 N   0  0  0  0  0  0  0  0  0  0  0  0
  1  2  1  0
  1 21  1  0
  2  5  1  0
  2 12  1  0
  3  4  2  0
  3  8  1  0
  3 23  1  0
  4  5  1  0
  5  7  1  0
  6  7  1  0
  6  8  2  0
  8 20  1  0
  9 11  1  0
  9 12  2  0
  9 21  1  0
 10 13  1  1
 10 20  1  0
 10 23  1  0
 11 22  1  0
 12 15  1  0
 14 15  1  0
 14 16  2  0
 15 17  2  0
 16 18  1  0
 17 19  1  0
 18 19  1  0
M  END
$$$$

     RDKit          3D

 15 16  0  0  0  0  0  0  0  0999 V2000
    1.6563   25.7619   15.7281 C   0  0  0  0  0  0  0  0  0  0  0  0
    2.0773   26.6125   14.6725 C   0  0  0  0  0  0  0  0  0  0  0  0
    2.3481   24.5842   10.0307 C   0  0  0  0  0  0  0  0  0  0  0  0
    2.6517   25.0592   16.4544 C   0  0  0  0  0  0  0  0  0  0  0  0
    2.9808   25.0295   12.1548 C   0  0  0  0  0  0  0  0  0  0  0  0
    3.4222   26.3524   11.7839 C   0  0  0  0  0  0  0  0  0  0  0  0
    3.4107   26.5001   14.2351 C   0  0  0  0  0  0  0  0  0  0  0  0
    3.4603   26.6588   10.4363 C   0  0  0  0  0  0  0  0  0  0  0  0
    3.8369   27.1435   12.9550 C   0  0  0  0  0  0  0  0  0  0  0  0
    3.9622   25.0748   16.0818 C   0  0  0  0  0  0  0  0  0  0  0  0
    4.0465   27.8945    9.8842 C   0  0  0  0  0  0  0  0  0  0  0  0
    4.3702   25.7905   14.9760 C   0  0  0  0  0  0  0  0  0  0  0  0
    1.7710   23.6552    9.2126 N   0  0  0  0  0  0  0  0  0  0  0  0
    2.3211   24.3330   11.3516 N   0  0  0  0  0  0  0  0  0  0  0  0
    2.9069   25.7434    9.5327 N   0  0  0  0  0  0  0  0  0  0  0  0
  1  2  2  0
  1  4  1  0
  2  7  1  0
  3 13  2  0
  3 14  1  0
  3 15  1  0
  4 10  2  0
  5  6  1  0
  5 14  1  0
  6  8  2  0
  6  9  1  0
  7  9  1  0
  7 12  2  0
  8 11  1  0
  8 15  1  0
 10 12  1  0
M  END
$$$$

     RDKit          3D

 10 11  0  0  0  0  0  0  0  0999 V2000
    2.2135   25.9417   14.3305 C   0  0  0  0  0  0  0  0  0  0  0  0
    2.3527   27.1093   13.6121 C   0  0  0  0  0  0  0  0  0  0  0  0
    2.4918   24.6791   13.7700 C   0  0  0  0  0  0  0  0  0  0  0  0
    2.8638   24.6241   12.4128 C   0  0  0  0  0  0  0  0  0  0  0  0
    2.7558   27.0177   12.2766 C   0  0  0  0  0  0  0  0  0  0  0  0
    2.9726   25.7763   11.6660 C   0  0  0  0  0  0  0  0  0  0  0  0
    3.4388   23.7823   10.3754 C   0  0  0  0  0  0  0  0  0  0  0  0
    3.1694   23.5166   11.6609 N   0  0  0  0  0  0  0  0  0  0  0  0
    3.7974   22.8939    9.4105 N   0  0  0  0  0  0  0  0  0  0  0  0
    3.3572   25.5024   10.0309 S   0  0  0  0  0  0  0  0  0  0  0  0
  1  2  2  0
  1  3  1  0
  2  5  1  0
  3  4  1  0
  4  6  2  0
  4  8  1  0
  5  6  1  0
  6 10  1  0
  7  8  1  0
  7  9  2  0
  7 10  1  0
M  END
$$$$

     RDKit          3D

 15 16  0  0  0  0  0  0  0  0999 V2000
    1.9755   26.9204   14.9035 C   0  0  0  0  0  0  0  0  0  0  0  0
    2.3094   25.7679   15.5628 C   0  0  0  0  0  0  0  0  0  0  0  0
    2.2905   27.1138   13.5439 C   0  0  0  0  0  0  0  0  0  0  0  0
    3.0105   24.7418   14.8610 C   0  0  0  0  0  0  0  0  0  0  0  0
    3.0321   25.1023   10.6191 C   0  0  0  0  0  0  0  0  0  0  0  0
    2.9363   26.0922   12.8793 C   0  0  0  0  0  0  0  0  0  0  0  0
    3.2136   26.1927   11.4342 C   0  0  0  0  0  0  0  0  0  0  0  0
    3.4293   25.1122    9.3037 C   0  0  0  0  0  0  0  0  0  0  0  0
    3.7650   27.3930   10.9107 C   0  0  0  0  0  0  0  0  0  0  0  0
    3.9268   26.3171    8.7525 C   0  0  0  0  0  0  0  0  0  0  0  0
    4.1172   27.4365    9.5318 C   0  0  0  0  0  0  0  0  0  0  0  0
    4.6843   28.6726    8.8916 C   0  0  0  0  0  0  0  0  0  0  0  0
    3.3137   23.6234   15.4343 O   0  0  0  0  0  0  0  0  0  0  0  0
    3.3027   24.9480   13.5482 N   0  0  0  0  0  0  0  0  0  0  0  0
    2.5672   23.9341   11.0715 F   0  0  0  0  0  0  0  0  0  0  0  0
  1  2  2  0
  1  3  1  0
  2  4  1  0
  3  6  1  0
  4 13  2  0
  4 14  1  0
  5  7  2  0
  5  8  1  0
  5 15  1  0
  6  7  1  0
  6 14  2  0
  7  9  1  0
  8 10  2  0
  9 11  2  0
 10 11  1  0
 11 12  1  0
M  END
$$$$

     RDKit          3D

 16 17  0  0  0  0  0  0  0  0999 V2000
    1.9035   26.5869   15.5272 C   0  0  0  0  0  0  0  0  0  0  0  0
    2.1306   26.9630   14.1570 C   0  0  0  0  0  0  0  0  0  0  0  0
    2.7466   25.6801   12.1392 C   0  0  0  0  0  0  0  0  0  0  0  0
    2.9446   25.9595   13.4761 C   0  0  0  0  0  0  0  0  0  0  0  0
    3.2042   26.3413   16.2160 C   0  0  0  0  0  0  0  0  0  0  0  0
    3.4894   24.6808   11.5511 C   0  0  0  0  0  0  0  0  0  0  0  0
    3.9411   25.2468   14.1848 C   0  0  0  0  0  0  0  0  0  0  0  0
    4.1233   25.4715   15.5894 C   0  0  0  0  0  0  0  0  0  0  0  0
    4.4606   23.9940   12.2027 C   0  0  0  0  0  0  0  0  0  0  0  0
    4.7060   24.2830   13.5455 C   0  0  0  0  0  0  0  0  0  0  0  0
    1.8056   23.9936    9.8741 O   0  0  0  0  0  0  0  0  0  0  0  0
    3.4561   25.6292    9.1776 O   0  0  0  0  0  0  0  0  0  0  0  0
    3.9856   23.1929    9.4376 O   0  0  0  0  0  0  0  0  0  0  0  0
    3.2635   24.3456    9.8819 S   0  0  0  0  0  0  0  0  0  0  0  0
    5.3134   22.6322   11.7788 Cl  0  0  0  0  0  0  0  0  0  0  0  0
    5.6783   23.0338   14.5294 Cl  0  0  0  0  0  0  0  0  0  0  0  0
  1  2  1  0
  1  5  1  0
  2  4  1  0
  3  4  1  0
  3  6  2  0
  4  7  2  0
  5  8  1  0
  6  9  1  0
  6 14  1  0
  7  8  1  0
  7 10  1  0
  9 10  2  0
  9 15  1  0
 10 16  1  0
 11 14  1  0
 12 14  1  0
 13 14  1  0
M  END
$$$$

     RDKit          3D

 21 24  0  0  0  0  0  0  0  0999 V2000
    2.0394   27.0951   15.1291 C   0  0  0  0  0  0  0  0  0  0  0  0
    2.3187   27.0753   13.8009 C   0  0  0  0  0  0  0  0  0  0  0  0
    3.1269   23.4530    9.1394 C   0  0  0  0  0  0  0  0  0  0  0  0
    3.0454   24.7370    8.6787 C   0  0  0  0  0  0  0  0  0  0  0  0
    2.9251   26.5664   16.0965 C   0  0  0  0  0  0  0  0  0  0  0  0
    3.2709   25.7705    9.6137 C   0  0  0  0  0  0  0  0  0  0  0  0
    3.6273   25.4986   10.9454 C   0  0  0  0  0  0  0  0  0  0  0  0
    3.5029   26.4712   13.3183 C   0  0  0  0  0  0  0  0  0  0  0  0
    3.7277   24.1492   11.3099 C   0  0  0  0  0  0  0  0  0  0  0  0
    4.3257   25.8926   14.3336 C   0  0  0  0  0  0  0  0  0  0  0  0
    5.2765   23.9501   13.1875 C   0  0  0  0  0  0  0  0  0  0  0  0
    5.4723   25.0736   13.9946 C   0  0  0  0  0  0  0  0  0  0  0  0
    6.3195   23.0314   13.0253 C   0  0  0  0  0  0  0  0  0  0  0  0
    6.7130   25.3572   14.5611 C   0  0  0  0  0  0  0  0  0  0  0  0
    7.6022   23.3289   13.5879 C   0  0  0  0  0  0  0  0  0  0  0  0
    7.7668   24.4415   14.3636 C   0  0  0  0  0  0  0  0  0  0  0  0
    3.8670   26.5778   11.8720 O   0  0  0  0  0  0  0  0  0  0  0  0
    4.0519   23.7268   12.5856 O   0  0  0  0  0  0  0  0  0  0  0  0
    3.4286   23.1516   10.3951 N   0  0  0  0  0  0  0  0  0  0  0  0
    4.0696   26.0076   15.6294 N   0  0  0  0  0  0  0  0  0  0  0  0
    3.0408   22.3282    8.0459 Cl  0  0  0  0  0  0  0  0  0  0  0  0
  1  2  2  0
  1  5  1  0
  2  8  1  0
  3  4  2  0
  3 19  1  0
  3 21  1  0
  4  6  1  0
  5 20  2  0
  6  7  2  0
  7  9  1  0
  7 17  1  0
  8 10  2  0
  8 17  1  0
  9 18  1  0
  9 19  2  0
 10 12  1  0
 10 20  1  0
 11 12  2  0
 11 13  1  0
 11 18  1  0
 12 14  1  0
 13 15  2  0
 14 16  2  0
 15 16  1  0
M  END
$$$$

     RDKit          3D

 13 14  0  0  0  0  0  0  0  0999 V2000
    2.0978   26.9182   14.1049 C   0  0  0  0  0  0  0  0  0  0  0  0
    2.0827   27.1474   15.4662 C   0  0  0  0  0  0  0  0  0  0  0  0
    2.7185   25.0862   11.5199 C   0  0  0  0  0  0  0  0  0  0  0  0
    3.4032   25.6829    9.3489 C   0  0  0  0  0  0  0  0  0  0  0  0
    3.3013   26.2558   12.0405 C   0  0  2  0  0  0  0  0  0  0  0  0
    3.2718   26.5818   13.4425 C   0  0  0  0  0  0  0  0  0  0  0  0
    3.2604   26.9988   16.1745 C   0  0  0  0  0  0  0  0  0  0  0  0
    3.8157   26.9236    9.7944 C   0  0  0  0  0  0  0  0  0  0  0  0
    3.7699   27.2370   11.1554 C   0  0  0  0  0  0  0  0  0  0  0  0
    4.4243   26.4937   14.2457 C   0  0  0  0  0  0  0  0  0  0  0  0
    2.1582   24.1870   12.2296 O   0  0  0  0  0  0  0  0  0  0  0  0
    2.8364   24.8317   10.1936 N   0  0  0  0  0  0  0  0  0  0  0  0
    4.4029   26.6808   15.5813 N   0  0  0  0  0  0  0  0  0  0  0  0
  1  2  2  0
  1  6  1  0
  2  7  1  0
  3  5  1  0
  3 11  2  0
  3 12  1  0
  4  8  1  0
  4 12  2  0
  5  6  1  1
  5  9  1  0
  6 10  2  0
  7 13  2  0
  8  9  2  0
 10 13  1  0
M  END
$$$$

     RDKit          3D

 11 11  0  0  0  0  0  0  0  0999 V2000
    2.2042   27.0359   13.8885 C   0  0  0  0  0  0  0  0  0  0  0  0
    2.7705   25.4004   12.1955 C   0  0  0  0  0  0  0  0  0  0  0  0
    3.1512   25.6318    9.7392 C   0  0  0  0  0  0  0  0  0  0  0  0
    3.1492   26.7565   12.6784 C   0  0  0  0  0  0  0  0  0  0  0  0
    3.1525   26.7709   15.0331 C   0  0  0  0  0  0  0  0  0  0  0  0
    3.1692   24.8490   10.9624 C   0  0  0  0  0  0  0  0  0  0  0  0
    3.5631   23.4124   10.9561 C   0  0  0  0  0  0  0  0  0  0  0  0
    4.6038   26.7073   13.1891 C   0  0  0  0  0  0  0  0  0  0  0  0
    4.6100   26.8094   14.6651 C   0  0  0  0  0  0  0  0  0  0  0  0
    3.5630   22.8279   12.0765 O   0  0  0  0  0  0  0  0  0  0  0  0
    3.8300   22.8082    9.8833 O   0  0  0  0  0  0  0  0  0  0  0  0
  1  4  1  0
  1  5  1  0
  2  4  1  0
  2  6  1  0
  3  6  1  0
  4  8  1  0
  5  9  1  0
  6  7  1  0
  7 10  2  0
  7 11  1  0
  8  9  1  0
M  END
$$$$

     RDKit          3D

 19 19  0  0  0  0  0  0  0  0999 V2000
    2.1472   26.7281   13.7541 C   0  0  0  0  0  0  0  0  0  0  0  0
    2.0334   26.6775   15.1621 C   0  0  0  0  0  0  0  0  0  0  0  0
    2.9252   24.6576   10.8714 C   0  0  0  0  0  0  0  0  0  0  0  0
    3.0246   25.7970   11.6624 C   0  0  0  0  0  0  0  0  0  0  0  0
    3.1625   24.6543   15.9147 C   0  0  0  0  0  0  0  0  0  0  0  0
    3.3400   24.6717    9.5419 C   0  0  0  0  0  0  0  0  0  0  0  0
    3.1760   26.7716   16.0549 C   0  0  0  0  0  0  0  0  0  0  0  0
    3.4592   27.0114   11.0862 C   0  0  0  0  0  0  0  0  0  0  0  0
    3.8105   25.8648    8.9765 C   0  0  0  0  0  0  0  0  0  0  0  0
    3.8489   27.0112    9.7343 C   0  0  0  0  0  0  0  0  0  0  0  0
    4.2079   25.7293   15.4754 C   0  0  2  0  0  0  0  0  0  0  0  0
    4.5061   25.2721   14.1804 C   0  0  0  0  0  0  0  0  0  0  0  0
    2.4249   23.5671   11.3857 O   0  0  0  0  0  0  0  0  0  0  0  0
    3.5015   29.5199    9.1908 O   0  0  0  0  0  0  0  0  0  0  0  0
    4.8172   28.2683    7.5912 O   0  0  0  0  0  0  0  0  0  0  0  0
    4.9114   24.2777   13.6297 O   0  0  0  0  0  0  0  0  0  0  0  0
    5.7190   28.8078    9.8230 O   0  0  0  0  0  0  0  0  0  0  0  0
    2.6824   25.6648   13.0084 N   0  0  0  0  0  0  0  0  0  0  0  0
    4.4972   28.4581    9.0104 S   0  0  0  0  0  0  0  0  0  0  0  0
  1  2  1  0
  1 18  2  3
  2  7  1  0
  3  4  2  0
  3  6  1  0
  3 13  1  0
  4  8  1  0
  4 18  1  0
 11  5  1  1
  6  9  2  0
  7 11  1  0
  8 10  2  0
  9 10  1  0
 10 19  1  0
 11 12  1  0
 12 16  2  0
 14 19  1  0
 15 19  1  0
 17 19  1  0
M  END
$$$$

     RDKit          3D

 10 11  0  0  0  0  0  0  0  0999 V2000
    2.0511   25.7193   14.9821 C   0  0  0  0  0  0  0  0  0  0  0  0
    2.2548   24.7429   14.0939 C   0  0  0  0  0  0  0  0  0  0  0  0
    2.2209   27.0544   14.6012 C   0  0  0  0  0  0  0  0  0  0  0  0
    2.5691   25.0114   12.7602 C   0  0  0  0  0  0  0  0  0  0  0  0
    2.5777   27.3292   13.3438 C   0  0  0  0  0  0  0  0  0  0  0  0
    2.6662   24.0650   11.7489 C   0  0  0  0  0  0  0  0  0  0  0  0
    2.7364   26.3497   12.3894 C   0  0  0  0  0  0  0  0  0  0  0  0
    2.9081   24.4903   10.4791 C   0  0  0  0  0  0  0  0  0  0  0  0
    3.0953   25.7932   10.1527 C   0  0  0  0  0  0  0  0  0  0  0  0
    3.1121   26.7499   11.0808 C   0  0  0  0  0  0  0  0  0  0  0  0
  1  2  2  0
  1  3  1  0
  2  4  1  0
  3  5  2  0
  4  6  2  0
  4  7  1  0
  5  7  1  0
  6  8  1  0
  7 10  2  0
  8  9  2  0
  9 10  1  0
M  END
$$$$

     RDKit          3D

 21 23  0  0  0  0  0  0  0  0999 V2000
    1.4850   27.9269   14.7546 C   0  0  0  0  0  0  0  0  0  0  0  0
    1.9185   27.3965   13.5879 C   0  0  0  0  0  0  0  0  0  0  0  0
    1.9441   27.4130   15.9058 C   0  0  0  0  0  0  0  0  0  0  0  0
    2.9106   24.4731   11.9512 C   0  0  0  0  0  0  0  0  0  0  0  0
    2.8890   26.3720   13.5434 C   0  0  0  0  0  0  0  0  0  0  0  0
    3.0433   25.8224   12.2166 C   0  0  1  0  0  0  0  0  0  0  0  0
    2.9528   26.4925   15.9689 C   0  0  0  0  0  0  0  0  0  0  0  0
    3.3483   24.3910   10.3459 C   0  0  2  0  0  0  0  0  0  0  0  0
    3.6523   25.7464    9.9616 C   0  0  0  0  0  0  0  0  0  0  0  0
    3.4709   25.9811   14.7924 C   0  0  0  0  0  0  0  0  0  0  0  0
    3.4734   26.5335   11.1056 C   0  0  0  0  0  0  0  0  0  0  0  0
    4.5281   22.8016    7.5746 C   0  0  0  0  0  0  0  0  0  0  0  0
    4.5099   23.6681   15.3980 C   0  0  0  0  0  0  0  0  0  0  0  0
    4.6712   24.9916   14.9934 C   0  0  0  0  0  0  0  0  0  0  0  0
    5.6323   22.8838   15.5994 C   0  0  0  0  0  0  0  0  0  0  0  0
    5.9271   25.4808   14.7436 C   0  0  0  0  0  0  0  0  0  0  0  0
    6.8885   23.3990   15.3423 C   0  0  0  0  0  0  0  0  0  0  0  0
    7.0431   24.6859   14.9012 C   0  0  0  0  0  0  0  0  0  0  0  0
    4.3474   23.2824    8.8810 O   0  0  0  0  0  0  0  0  0  0  0  0
    2.1091   23.0744    8.7112 N   0  0  0  0  0  0  0  0  0  0  0  0
    3.2552   23.3283    9.5464 N   0  0  0  0  0  0  0  0  0  0  0  0
  1  2  2  0
  1  3  1  0
  2  5  1  0
  3  7  2  0
  4  6  1  0
  4  8  1  0
  6  5  1  1
  5 10  2  0
  6 11  1  0
  7 10  1  0
  8  9  1  0
  8 21  1  6
  9 11  1  0
 10 14  1  0
 12 19  1  0
 13 14  2  0
 13 15  1  0
 14 16  1  0
 15 17  2  0
 16 18  2  0
 17 18  1  0
 19 21  1  0
 20 21  1  0
M  END
$$$$

     RDKit          3D

 14 15  0  0  0  0  0  0  0  0999 V2000
    2.1532   25.7757   15.5742 C   0  0  0  0  0  0  0  0  0  0  0  0
    2.4935   24.6399    9.8217 C   0  0  0  0  0  0  0  0  0  0  0  0
    2.4331   26.5024   14.4063 C   0  0  0  0  0  0  0  0  0  0  0  0
    3.1940   25.0265   16.1769 C   0  0  0  0  0  0  0  0  0  0  0  0
    3.4429   26.2139   11.4447 C   0  0  1  0  0  0  0  0  0  0  0  0
    3.5055   26.6644   10.1258 C   0  0  0  0  0  0  0  0  0  0  0  0
    3.6926   26.4049   13.8268 C   0  0  0  0  0  0  0  0  0  0  0  0
    4.4605   24.9270   15.5865 C   0  0  0  0  0  0  0  0  0  0  0  0
    4.6982   25.6295   14.3973 C   0  0  0  0  0  0  0  0  0  0  0  0
    3.9225   27.8198    9.8353 O   0  0  0  0  0  0  0  0  0  0  0  0
    1.9389   23.6173    9.1357 N   0  0  0  0  0  0  0  0  0  0  0  0
    2.9768   25.7417    9.2345 N   0  0  0  0  0  0  0  0  0  0  0  0
    3.9311   26.9959   12.5420 N   0  0  0  0  0  0  0  0  0  0  0  0
    2.6495   24.7022   11.4806 S   0  0  0  0  0  0  0  0  0  0  0  0
  1  3  2  0
  1  4  1  0
  2 11  2  0
  2 12  1  0
  2 14  1  0
  3  7  1  0
  4  8  2  0
  5  6  1  0
  5 13  1  1
  5 14  1  0
  6 10  2  0
  6 12  1  0
  7  9  2  0
  7 13  1  0
  8  9  1  0
M  END
$$$$

     RDKit          3D

 12 12  0  0  0  0  0  0  0  0999 V2000
    2.5547   24.7249   12.6718 C   0  0  0  0  0  0  0  0  0  0  0  0
    2.8828   25.0911   16.7876 C   0  0  0  0  0  0  0  0  0  0  0  0
    2.8346   25.7732   11.8295 C   0  0  0  0  0  0  0  0  0  0  0  0
    2.7009   26.1005   14.5520 C   0  0  0  0  0  0  0  0  0  0  0  0
    2.9234   25.5062   10.3758 C   0  0  0  0  0  0  0  0  0  0  0  0
    3.0345   27.0373   12.3461 C   0  0  0  0  0  0  0  0  0  0  0  0
    2.9851   27.1900   13.7220 C   0  0  0  0  0  0  0  0  0  0  0  0
    2.9454   27.4340   16.5866 C   0  0  0  0  0  0  0  0  0  0  0  0
    3.2847   26.3348    9.6040 O   0  0  0  0  0  0  0  0  0  0  0  0
    2.5831   24.2306   10.0028 N   0  0  0  0  0  0  0  0  0  0  0  0
    2.4751   24.8906   13.9977 N   0  0  0  0  0  0  0  0  0  0  0  0
    2.6743   26.1999   15.9107 N   0  0  0  0  0  0  0  0  0  0  0  0
  1  3  2  0
  1 11  1  0
  2 12  1  0
  3  5  1  0
  3  6  1  0
  4  7  1  0
  4 11  2  0
  4 12  1  0
  5  9  2  0
  5 10  1  0
  6  7  2  0
  8 12  1  0
M  END
$$$$

     RDKit          3D

 13 14  0  0  0  0  0  0  0  0999 V2000
    2.5006   27.1251   14.3781 C   0  0  0  0  0  0  0  0  0  0  0  0
    2.6573   26.9414   15.7498 C   0  0  0  0  0  0  0  0  0  0  0  0
    2.9044   24.9062    9.8158 C   0  0  0  0  0  0  0  0  0  0  0  0
    2.9040   26.0975   13.4664 C   0  0  0  0  0  0  0  0  0  0  0  0
    2.7354   26.1601   12.0305 C   0  0  0  0  0  0  0  0  0  0  0  0
    3.1571   25.0707   11.2512 C   0  0  0  0  0  0  0  0  0  0  0  0
    3.2212   25.7998   16.2623 C   0  0  0  0  0  0  0  0  0  0  0  0
    3.4735   24.9026   14.0235 C   0  0  0  0  0  0  0  0  0  0  0  0
    3.7509   23.9654   11.8856 C   0  0  0  0  0  0  0  0  0  0  0  0
    3.6742   24.7819   15.4114 C   0  0  0  0  0  0  0  0  0  0  0  0
    1.9962   24.0052    9.5729 O   0  0  0  0  0  0  0  0  0  0  0  0
    3.4845   25.5528    8.8944 O   0  0  0  0  0  0  0  0  0  0  0  0
    3.9004   23.8931   13.2174 N   0  0  0  0  0  0  0  0  0  0  0  0
  1  2  2  0
  1  4  1  0
  2  7  1  0
  3  6  1  0
  3 11  2  0
  3 12  1  0
  4  5  2  0
  4  8  1  0
  5  6  1  0
  6  9  2  0
  7 10  2  0
  8 10  1  0
  8 13  2  0
  9 13  1  0
M  END
$$$$

     RDKit          3D

 21 24  0  0  0  0  0  0  0  0999 V2000
    2.2942   26.9246   15.3826 C   0  0  0  0  0  0  0  0  0  0  0  0
    2.6458   26.8882   14.0339 C   0  0  0  0  0  0  0  0  0  0  0  0
    2.6607   23.6536    9.2934 C   0  0  0  0  0  0  0  0  0  0  0  0
    2.6707   25.0226    9.1219 C   0  0  0  0  0  0  0  0  0  0  0  0
    3.1212   23.0830   10.4861 C   0  0  0  0  0  0  0  0  0  0  0  0
    3.0209   26.2002   16.3570 C   0  0  0  0  0  0  0  0  0  0  0  0
    3.1693   25.8278   10.1724 C   0  0  0  0  0  0  0  0  0  0  0  0
    3.5789   23.8594   11.5163 C   0  0  0  0  0  0  0  0  0  0  0  0
    3.5833   25.2640   11.3769 C   0  0  0  0  0  0  0  0  0  0  0  0
    3.7073   26.0738   13.6359 C   0  0  0  0  0  0  0  0  0  0  0  0
    4.0699   25.3657   15.9508 C   0  0  2  0  0  0  0  0  0  0  0  0
    4.4198   25.2859   14.6163 C   0  0  0  0  0  0  0  0  0  0  0  0
    5.2866   23.3600   13.3015 C   0  0  0  0  0  0  0  0  0  0  0  0
    5.5210   24.4357   14.1604 C   0  0  0  0  0  0  0  0  0  0  0  0
    6.3369   22.5190   12.9126 C   0  0  0  0  0  0  0  0  0  0  0  0
    6.8332   24.7060   14.5264 C   0  0  0  0  0  0  0  0  0  0  0  0
    7.6313   22.7942   13.3498 C   0  0  0  0  0  0  0  0  0  0  0  0
    7.8864   23.9175   14.1322 C   0  0  0  0  0  0  0  0  0  0  0  0
    4.1276   26.1074   12.3432 O   0  0  0  0  0  0  0  0  0  0  0  0
    3.9908   23.1418   12.7221 N   0  0  0  0  0  0  0  0  0  0  0  0
    4.4975   23.9186   16.9873 Cl  0  0  0  0  0  0  0  0  0  0  0  0
  1  2  1  0
  1  6  2  0
  2 10  2  0
  3  4  2  0
  3  5  1  0
  4  7  1  0
  5  8  2  0
  6 11  1  0
  7  9  2  0
  8  9  1  0
  8 20  1  0
  9 19  1  0
 10 12  1  0
 10 19  1  0
 11 12  1  0
 11 21  1  6
 12 14  1  0
 13 14  2  0
 13 15  1  0
 13 20  1  0
 14 16  1  0
 15 17  2  0
 16 18  2  0
 17 18  1  0
M  END
$$$$

     RDKit          3D

 15 16  0  0  0  0  0  0  0  0999 V2000
    2.2097   26.8128   14.0372 C   0  0  0  0  0  0  0  0  0  0  0  0
    2.5052   26.9951   15.3951 C   0  0  0  0  0  0  0  0  0  0  0  0
    2.8271   24.9623   11.2664 C   0  0  0  0  0  0  0  0  0  0  0  0
    2.9384   24.7144    9.8393 C   0  0  0  0  0  0  0  0  0  0  0  0
    3.2154   22.7802    8.2498 C   0  0  0  0  0  0  0  0  0  0  0  0
    3.4095   25.7345    9.0184 C   0  0  0  0  0  0  0  0  0  0  0  0
    3.2053   26.2375   11.7481 C   0  0  1  0  0  0  0  0  0  0  0  0
    3.3519   26.5135   13.1812 C   0  0  0  0  0  0  0  0  0  0  0  0
    3.7941   26.9803    9.5468 C   0  0  0  0  0  0  0  0  0  0  0  0
    3.8073   26.9495   15.9031 C   0  0  0  0  0  0  0  0  0  0  0  0
    3.6809   27.2753   10.8929 C   0  0  0  0  0  0  0  0  0  0  0  0
    4.6509   26.4623   13.7348 C   0  0  0  0  0  0  0  0  0  0  0  0
    4.8994   26.7085   15.0540 C   0  0  0  0  0  0  0  0  0  0  0  0
    2.2098   23.9696   11.9753 O   0  0  0  0  0  0  0  0  0  0  0  0
    2.6105   23.4289    9.4757 O   0  0  0  0  0  0  0  0  0  0  0  0
  1  2  2  0
  1  8  1  0
  2 10  1  0
  3  4  2  0
  3  7  1  0
  3 14  1  0
  4  6  1  0
  4 15  1  0
  5 15  1  0
  6  9  1  0
  7  8  1  1
  7 11  1  0
  8 12  2  0
  9 11  2  0
 10 13  2  0
 12 13  1  0
M  END
$$$$

     RDKit          3D

 10 10  0  0  0  0  0  0  0  0999 V2000
    2.5966   25.9274   14.4887 C   0  0  0  0  0  0  0  0  0  0  0  0
    2.5782   26.9346   13.5196 C   0  0  0  0  0  0  0  0  0  0  0  0
    2.8664   24.6179   14.1349 C   0  0  0  0  0  0  0  0  0  0  0  0
    2.8315   26.6427   12.1875 C   0  0  0  0  0  0  0  0  0  0  0  0
    3.0412   24.3358   12.7695 C   0  0  0  0  0  0  0  0  0  0  0  0
    3.0942   24.9258   10.3176 C   0  0  0  0  0  0  0  0  0  0  0  0
    3.0204   25.3050   11.7782 C   0  0  0  0  0  0  0  0  0  0  0  0
    3.6839   25.6598    9.5212 O   0  0  0  0  0  0  0  0  0  0  0  0
    2.4770   23.7946    9.8520 N   0  0  0  0  0  0  0  0  0  0  0  0
    2.4477   26.6389   16.0536 Cl  0  0  0  0  0  0  0  0  0  0  0  0
  1  2  2  0
  1  3  1  0
  1 10  1  0
  2  4  1  0
  3  5  2  0
  4  7  2  0
  5  7  1  0
  6  7  1  0
  6  8  2  0
  6  9  1  0
M  END
$$$$

     RDKit          3D

 13 14  0  0  0  0  0  0  0  0999 V2000
    2.1203   27.0925   13.5799 C   0  0  0  0  0  0  0  0  0  0  0  0
    2.0014   27.1246   14.9962 C   0  0  0  0  0  0  0  0  0  0  0  0
    2.3259   25.9988   15.6822 C   0  0  0  0  0  0  0  0  0  0  0  0
    2.6356   25.9559   12.9419 C   0  0  0  0  0  0  0  0  0  0  0  0
    2.8794   24.8544   10.7386 C   0  0  0  0  0  0  0  0  0  0  0  0
    2.8231   24.8732   15.0881 C   0  0  0  0  0  0  0  0  0  0  0  0
    3.1573   23.6371    8.6185 C   0  0  0  0  0  0  0  0  0  0  0  0
    2.9589   24.8440   13.7240 C   0  0  0  0  0  0  0  0  0  0  0  0
    2.9246   25.9973   11.5077 C   0  0  0  0  0  0  0  0  0  0  0  0
    3.2618   24.9164    9.3725 C   0  0  0  0  0  0  0  0  0  0  0  0
    3.4477   27.1605   10.9728 C   0  0  0  0  0  0  0  0  0  0  0  0
    3.8708   27.1440    9.6696 C   0  0  0  0  0  0  0  0  0  0  0  0
    3.7719   26.0774    8.8912 N   0  0  0  0  0  0  0  0  0  0  0  0
  1  2  2  0
  1  4  1  0
  2  3  1  0
  3  6  2  0
  4  8  2  0
  4  9  1  0
  5  9  2  0
  5 10  1  0
  6  8  1  0
  7 10  1  0
  9 11  1  0
 10 13  2  0
 11 12  2  0
 12 13  1  0
M  END
$$$$

     RDKit          3D

 11 12  0  0  0  0  0  0  0  0999 V2000
    2.6087   26.3192   14.9901 C   0  0  0  0  0  0  0  0  0  0  0  0
    2.8012   27.1607   13.8975 C   0  0  0  0  0  0  0  0  0  0  0  0
    3.0696   24.3731   13.7505 C   0  0  0  0  0  0  0  0  0  0  0  0
    3.1111   25.1056   12.5463 C   0  0  0  0  0  0  0  0  0  0  0  0
    3.1450   25.2148   10.1082 C   0  0  0  0  0  0  0  0  0  0  0  0
    3.0106   26.5095   12.6223 C   0  0  0  0  0  0  0  0  0  0  0  0
    3.1154   27.2568   11.3997 C   0  0  0  0  0  0  0  0  0  0  0  0
    3.1678   24.4604   11.2721 C   0  0  0  0  0  0  0  0  0  0  0  0
    3.1700   26.6070   10.1642 C   0  0  0  0  0  0  0  0  0  0  0  0
    3.1682   23.1363   11.2595 O   0  0  0  0  0  0  0  0  0  0  0  0
    2.8327   24.9838   14.9039 N   0  0  0  0  0  0  0  0  0  0  0  0
  1  2  2  0
  1 11  1  0
  2  6  1  0
  3  4  1  0
  3 11  2  0
  4  6  2  0
  4  8  1  0
  5  8  2  0
  5  9  1  0
  6  7  1  0
  7  9  2  0
  8 10  1  0
M  END
$$$$

     RDKit          3D

 13 14  0  0  0  0  0  0  0  0999 V2000
    1.9245   26.9859   14.1058 C   0  0  0  0  0  0  0  0  0  0  0  0
    2.6880   23.9184   10.7651 C   0  0  0  0  0  0  0  0  0  0  0  0
    2.8250   24.4444   12.0770 C   0  0  0  0  0  0  0  0  0  0  0  0
    2.8681   24.7573    9.6997 C   0  0  0  0  0  0  0  0  0  0  0  0
    3.0204   25.8057   12.2369 C   0  0  0  0  0  0  0  0  0  0  0  0
    3.0552   26.1000    9.8578 C   0  0  0  0  0  0  0  0  0  0  0  0
    3.0518   26.3926   13.5713 C   0  0  0  0  0  0  0  0  0  0  0  0
    3.1849   26.6475   11.1410 C   0  0  0  0  0  0  0  0  0  0  0  0
    4.0922   26.4607   14.4889 C   0  0  0  0  0  0  0  0  0  0  0  0
    2.2796   27.3893   15.3537 N   0  0  0  0  0  0  0  0  0  0  0  0
    3.5541   27.1004   15.5669 N   0  0  0  0  0  0  0  0  0  0  0  0
    5.4120   26.1811   14.2858 N   0  0  0  0  0  0  0  0  0  0  0  0
    2.2960   23.8907    8.3254 Cl  0  0  0  0  0  0  0  0  0  0  0  0
  1  7  1  0
  1 10  1  0
  2  3  2  0
  2  4  1  0
  3  5  1  0
  4  6  2  0
  4 13  1  0
  5  7  1  0
  5  8  2  0
  6  8  1  0
  7  9  1  0
  9 11  1  0
  9 12  2  0
 10 11  1  0
M  END
$$$$

     RDKit          3D

 17 18  0  0  0  0  0  0  0  0999 V2000
    2.1293   26.3275   16.0602 C   0  0  0  0  0  0  0  0  0  0  0  0
    2.3591   26.8592   14.8145 C   0  0  0  0  0  0  0  0  0  0  0  0
    2.5014   24.7045   10.0339 C   0  0  0  0  0  0  0  0  0  0  0  0
    2.6308   24.9378   11.4875 C   0  0  0  0  0  0  0  0  0  0  0  0
    2.9876   25.3818   16.6186 C   0  0  1  0  0  0  0  0  0  0  0  0
    3.3053   26.2171   11.6203 C   0  0  0  0  0  0  0  0  0  0  0  0
    3.5046   26.4474   14.1270 C   0  0  0  0  0  0  0  0  0  0  0  0
    3.5458   26.6677   10.2963 C   0  0  0  0  0  0  0  0  0  0  0  0
    3.8089   26.9860   12.7777 C   0  0  0  0  0  0  0  0  0  0  0  0
    4.1138   24.9578   15.9190 C   0  0  0  0  0  0  0  0  0  0  0  0
    4.3611   25.4888   14.6648 C   0  0  0  0  0  0  0  0  0  0  0  0
    4.2081   27.9229    9.8580 C   0  0  0  0  0  0  0  0  0  0  0  0
    4.7573   23.8145   16.3796 O   0  0  0  0  0  0  0  0  0  0  0  0
    1.9240   23.6655    9.4085 N   0  0  0  0  0  0  0  0  0  0  0  0
    2.1245   24.0466   12.3351 N   0  0  0  0  0  0  0  0  0  0  0  0
    3.0568   25.7705    9.3803 N   0  0  0  0  0  0  0  0  0  0  0  0
    3.0852   24.7310   18.1953 Cl  0  0  0  0  0  0  0  0  0  0  0  0
  1  2  2  0
  1  5  1  0
  2  7  1  0
  3  4  1  0
  3 14  2  0
  3 16  1  0
  4  6  1  0
  4 15  2  0
  5 10  1  0
  5 17  1  1
  6  8  2  0
  6  9  1  0
  7  9  1  0
  7 11  1  0
  8 12  1  0
  8 16  1  0
 10 11  2  0
 10 13  1  0
M  END
$$$$

     RDKit          3D

 10 11  0  0  0  0  0  0  0  0999 V2000
    2.1244   25.7788   14.6487 C   0  0  0  0  0  0  0  0  0  0  0  0
    2.3283   24.5974   13.9237 C   0  0  0  0  0  0  0  0  0  0  0  0
    2.3561   27.0561   14.0926 C   0  0  0  0  0  0  0  0  0  0  0  0
    2.8086   24.6690   12.5594 C   0  0  2  0  0  0  0  0  0  0  0  0
    2.8136   27.1488   12.7688 C   0  0  0  0  0  0  0  0  0  0  0  0
    3.0487   25.9701   11.9981 C   0  0  0  0  0  0  0  0  0  0  0  0
    3.4771   24.5155   10.2846 C   0  0  0  0  0  0  0  0  0  0  0  0
    3.4655   25.8737   10.6498 C   0  0  0  0  0  0  0  0  0  0  0  0
    3.7895   27.0475    9.7192 C   0  0  0  0  0  0  0  0  0  0  0  0
    3.1075   23.7372   11.4455 N   0  0  0  0  0  0  0  0  0  0  0  0
  1  2  2  0
  1  3  1  0
  2  4  1  0
  3  5  2  0
  4  6  1  0
  4 10  1  6
  5  6  1  0
  6  8  2  0
  7  8  1  0
  7 10  1  0
  8  9  1  0
M  END
$$$$

     RDKit          3D

 13 14  0  0  0  0  0  0  0  0999 V2000
    2.2882   26.8745   15.0791 C   0  0  0  0  0  0  0  0  0  0  0  0
    2.3567   27.0127   13.6895 C   0  0  0  0  0  0  0  0  0  0  0  0
    2.9074   24.6017   14.9541 C   0  0  0  0  0  0  0  0  0  0  0  0
    2.7094   24.8776   10.6361 C   0  0  0  0  0  0  0  0  0  0  0  0
    2.7245   25.8964   12.9134 C   0  0  0  0  0  0  0  0  0  0  0  0
    2.9645   24.6726   13.5518 C   0  0  0  0  0  0  0  0  0  0  0  0
    3.0234   24.9439    9.2902 C   0  0  0  0  0  0  0  0  0  0  0  0
    2.9787   25.9434   11.4628 C   0  0  0  0  0  0  0  0  0  0  0  0
    3.5608   27.1048   10.9027 C   0  0  0  0  0  0  0  0  0  0  0  0
    3.9103   27.1109    9.5506 C   0  0  0  0  0  0  0  0  0  0  0  0
    3.2665   23.5144   15.4744 O   0  0  0  0  0  0  0  0  0  0  0  0
    2.5736   25.6846   15.6644 N   0  0  0  0  0  0  0  0  0  0  0  0
    3.6133   26.0933    8.7927 N   0  0  0  0  0  0  0  0  0  0  0  0
  1  2  1  0
  1 12  2  0
  2  5  2  0
  3  6  1  0
  3 11  2  0
  3 12  1  0
  4  7  1  0
  4  8  2  0
  5  6  1  0
  5  8  1  0
  7 13  1  0
  8  9  1  0
  9 10  1  0
 10 13  2  0
M  END
$$$$

     RDKit          3D

 12 13  0  0  0  0  0  0  0  0999 V2000
    2.5998   26.1433   12.6412 C   0  0  0  0  0  0  0  0  0  0  0  0
    2.4242   27.1002   14.9349 C   0  0  0  0  0  0  0  0  0  0  0  0
    2.6764   24.2290    9.5472 C   0  0  0  0  0  0  0  0  0  0  0  0
    2.8408   25.9955   13.9846 C   0  0  0  0  0  0  0  0  0  0  0  0
    2.9255   25.1553   11.7536 C   0  0  0  0  0  0  0  0  0  0  0  0
    3.5388   23.9696   12.2141 C   0  0  0  0  0  0  0  0  0  0  0  0
    3.4489   24.8546   14.4661 C   0  0  0  0  0  0  0  0  0  0  0  0
    3.7103   23.2417    9.9502 C   0  0  0  0  0  0  0  0  0  0  0  0
    3.8053   23.8400   13.5903 C   0  0  0  0  0  0  0  0  0  0  0  0
    1.3365   23.7795    8.9990 O   0  0  0  0  0  0  0  0  0  0  0  0
    2.5211   25.3177   10.4176 O   0  0  0  0  0  0  0  0  0  0  0  0
    3.8291   22.9634   11.3266 O   0  0  0  0  0  0  0  0  0  0  0  0
  1  4  2  0
  1  5  1  0
  2  4  1  0
  3  8  1  0
  3 10  2  0
  3 11  1  0
  4  7  1  0
  5  6  2  0
  5 11  1  0
  6  9  1  0
  6 12  1  0
  7  9  2  0
  8 12  1  0
M  END
$$$$

     RDKit          3D

 21 24  0  0  0  0  0  0  0  0999 V2000
    2.0373   26.5652   15.2360 C   0  0  0  0  0  0  0  0  0  0  0  0
    2.5773   23.8968    9.1602 C   0  0  0  0  0  0  0  0  0  0  0  0
    2.5456   26.8665   13.9700 C   0  0  0  0  0  0  0  0  0  0  0  0
    2.6902   25.2576    8.9114 C   0  0  0  0  0  0  0  0  0  0  0  0
    2.7227   25.7081   16.0786 C   0  0  0  0  0  0  0  0  0  0  0  0
    3.2414   26.1243    9.8857 C   0  0  0  0  0  0  0  0  0  0  0  0
    3.5605   24.1679   11.2800 C   0  0  0  0  0  0  0  0  0  0  0  0
    3.6346   25.5865   11.0933 C   0  0  0  0  0  0  0  0  0  0  0  0
    3.7190   26.2402   13.5454 C   0  0  0  0  0  0  0  0  0  0  0  0
    3.9159   25.1166   15.6416 C   0  0  0  0  0  0  0  0  0  0  0  0
    4.3984   25.3230   14.3763 C   0  0  0  0  0  0  0  0  0  0  0  0
    4.1919   26.5580   12.1411 C   0  0  0  0  0  0  0  0  0  0  0  0
    5.3602   23.5465   12.9869 C   0  0  0  0  0  0  0  0  0  0  0  0
    5.5520   24.5697   13.9314 C   0  0  0  0  0  0  0  0  0  0  0  0
    6.3590   22.6603   12.7075 C   0  0  0  0  0  0  0  0  0  0  0  0
    6.8466   24.7609   14.4233 C   0  0  0  0  0  0  0  0  0  0  0  0
    7.6354   22.8585   13.2238 C   0  0  0  0  0  0  0  0  0  0  0  0
    7.8892   23.9238   14.0701 C   0  0  0  0  0  0  0  0  0  0  0  0
    4.0810   23.4196   12.3998 O   0  0  0  0  0  0  0  0  0  0  0  0
    3.0017   23.3992   10.3200 N   0  0  0  0  0  0  0  0  0  0  0  0
    4.4947   23.9357   16.6888 Cl  0  0  0  0  0  0  0  0  0  0  0  0
  1  3  2  0
  1  5  1  0
  2  4  1  0
  2 20  2  0
  3  9  1  0
  4  6  2  0
  5 10  2  0
  6  8  1  0
  7  8  2  0
  7 19  1  0
  7 20  1  0
  8 12  1  0
  9 11  2  0
  9 12  1  0
 10 11  1  0
 10 21  1  0
 11 14  1  0
 13 14  1  0
 13 15  2  0
 13 19  1  0
 14 16  1  0
 15 17  1  0
 16 18  2  0
 17 18  1  0
M  END
$$$$

     RDKit          3D

 11 11  0  0  0  0  0  0  0  0999 V2000
    2.6271   24.9139   11.7387 C   0  0  0  0  0  0  0  0  0  0  0  0
    2.7440   24.4788   10.3869 C   0  0  0  0  0  0  0  0  0  0  0  0
    2.7801   26.6797   13.4458 C   0  0  0  0  0  0  0  0  0  0  0  0
    2.9539   26.2335   12.0721 C   0  0  0  0  0  0  0  0  0  0  0  0
    3.2530   25.3869    9.4137 C   0  0  0  0  0  0  0  0  0  0  0  0
    3.6082   26.6724    9.7675 C   0  0  0  0  0  0  0  0  0  0  0  0
    3.4700   27.1084   11.0935 C   0  0  0  0  0  0  0  0  0  0  0  0
    3.9999   26.8506   14.2373 C   0  0  0  0  0  0  0  0  0  0  0  0
    1.6473   26.7599   13.9504 O   0  0  0  0  0  0  0  0  0  0  0  0
    2.0793   24.0599   12.6409 O   0  0  0  0  0  0  0  0  0  0  0  0
    2.3148   23.3417    9.9613 O   0  0  0  0  0  0  0  0  0  0  0  0
  1  2  2  0
  1  4  1  0
  1 10  1  0
  2  5  1  0
  2 11  1  0
  3  4  1  0
  3  8  1  0
  3  9  2  0
  4  7  2  0
  5  6  2  0
  6  7  1  0
M  END
$$$$

     RDKit          3D

 13 14  0  0  0  0  0  0  0  0999 V2000
    2.5811   26.6516   15.7399 C   0  0  0  0  0  0  0  0  0  0  0  0
    2.8859   26.8991   13.2058 C   0  0  0  0  0  0  0  0  0  0  0  0
    3.0203   26.1329   14.3915 C   0  0  0  0  0  0  0  0  0  0  0  0
    3.2806   26.2720   11.9923 C   0  0  0  0  0  0  0  0  0  0  0  0
    3.1871   26.9129   10.7543 C   0  0  0  0  0  0  0  0  0  0  0  0
    3.5045   26.2001    9.5837 C   0  0  0  0  0  0  0  0  0  0  0  0
    3.8366   24.2692   13.2367 C   0  0  0  0  0  0  0  0  0  0  0  0
    3.9117   24.8728    9.6231 C   0  0  0  0  0  0  0  0  0  0  0  0
    3.7149   24.9374   12.0264 C   0  0  0  0  0  0  0  0  0  0  0  0
    4.0433   24.2190   10.8511 C   0  0  0  0  0  0  0  0  0  0  0  0
    1.6895   25.9469   16.3372 O   0  0  0  0  0  0  0  0  0  0  0  0
    3.1576   27.5719   16.3079 O   0  0  0  0  0  0  0  0  0  0  0  0
    3.4615   24.8661   14.3648 N   0  0  0  0  0  0  0  0  0  0  0  0
  1  3  1  0
  1 11  2  0
  1 12  1  0
  2  3  2  0
  2  4  1  0
  3 13  1  0
  4  5  1  0
  4  9  2  0
  5  6  1  0
  6  8  2  0
  7  9  1  0
  7 13  2  0
  8 10  1  0
  9 10  1  0
M  END
$$$$

     RDKit          3D

 18 19  0  0  0  0  0  0  0  0999 V2000
    1.9481   26.9039   13.5238 C   0  0  0  0  0  0  0  0  0  0  0  0
    2.6106   26.1676   15.9044 C   0  0  0  0  0  0  0  0  0  0  0  0
    2.5209   27.1845   14.8615 C   0  0  0  0  0  0  0  0  0  0  0  0
    2.9887   24.8198   10.5412 C   0  0  0  0  0  0  0  0  0  0  0  0
    3.1454   24.8319   15.1599 C   0  0  0  0  0  0  0  0  0  0  0  0
    2.9866   25.9199   11.4321 C   0  0  0  0  0  0  0  0  0  0  0  0
    3.3424   24.8878   13.6874 C   0  0  0  0  0  0  0  0  0  0  0  0
    3.5683   24.9404    9.2386 C   0  0  0  0  0  0  0  0  0  0  0  0
    3.4661   27.1875   10.9716 C   0  0  0  0  0  0  0  0  0  0  0  0
    4.0693   26.1832    8.8020 C   0  0  0  0  0  0  0  0  0  0  0  0
    3.9696   27.3026    9.6272 C   0  0  0  0  0  0  0  0  0  0  0  0
    5.9354   29.4066    9.6419 C   0  0  0  0  0  0  0  0  0  0  0  0
    2.4173   23.6424   10.8586 O   0  0  0  0  0  0  0  0  0  0  0  0
    2.8431   26.5745   17.0359 O   0  0  0  0  0  0  0  0  0  0  0  0
    3.4539   29.8164    9.2199 O   0  0  0  0  0  0  0  0  0  0  0  0
    4.7695   28.6393    7.4656 O   0  0  0  0  0  0  0  0  0  0  0  0
    2.4583   25.7052   12.8159 N   0  0  0  0  0  0  0  0  0  0  0  0
    4.4847   28.8431    8.9451 S   0  0  0  0  0  0  0  0  0  0  0  0
  1  3  1  0
  1 17  1  0
  2  3  1  0
  2  5  1  0
  2 14  2  0
  4  6  2  0
  4  8  1  0
  4 13  1  0
  5  7  1  0
  6  9  1  0
  6 17  1  0
  7 17  1  0
  8 10  1  0
  9 11  1  0
 10 11  2  0
 11 18  1  0
 12 18  1  0
 15 18  1  0
 16 18  1  0
M  END
$$$$

     RDKit          3D

 31 33  0  0  0  0  0  0  0  0999 V2000
    2.1430   26.6559   13.1016 C   0  0  0  0  0  0  0  0  0  0  0  0
    2.1543   27.3802   14.2981 C   0  0  0  0  0  0  0  0  0  0  0  0
    2.6751   25.3638   13.0300 C   0  0  0  0  0  0  0  0  0  0  0  0
    2.6945   26.7697   15.4330 C   0  0  0  0  0  0  0  0  0  0  0  0
    3.4032   24.2712    9.7690 C   0  0  2  0  0  0  0  0  0  0  0  0
    3.2743   24.8369   14.1847 C   0  0  0  0  0  0  0  0  0  0  0  0
    3.1724   25.0679   17.8748 C   0  0  0  0  0  0  0  0  0  0  0  0
    3.2953   25.5328   15.3761 C   0  0  0  0  0  0  0  0  0  0  0  0
    3.6450   23.8820   11.2224 C   0  0  1  0  0  0  0  0  0  0  0  0
    3.4597   26.6631    9.2603 C   0  0  0  0  0  0  0  0  0  0  0  0
    3.8811   24.8473   16.5803 C   0  0  0  0  0  0  0  0  0  0  0  0
    3.9191   23.2634    8.8377 C   0  0  0  0  0  0  0  0  0  0  0  0
    4.3147   27.8120    8.7534 C   0  0  0  0  0  0  0  0  0  0  0  0
    4.5096   28.1329    7.3898 C   0  0  0  0  0  0  0  0  0  0  0  0
    4.8356   23.0993   11.4934 C   0  0  0  0  0  0  0  0  0  0  0  0
    5.1499   23.5014    8.0988 C   0  0  0  0  0  0  0  0  0  0  0  0
    4.9425   28.5316    9.7296 C   0  0  0  0  0  0  0  0  0  0  0  0
    5.4708   29.1523    7.0376 C   0  0  0  0  0  0  0  0  0  0  0  0
    5.9080   29.4811    9.3924 C   0  0  0  0  0  0  0  0  0  0  0  0
    6.1868   29.8017    8.0688 C   0  0  0  0  0  0  0  0  0  0  0  0
    7.3089   30.7874    7.8392 C   0  0  0  0  0  0  0  0  0  0  0  0
    7.4781   31.3873    6.6212 C   0  0  0  0  0  0  0  0  0  0  0  0
    8.1835   31.0787    8.8864 C   0  0  0  0  0  0  0  0  0  0  0  0
    8.4386   32.3906    6.4728 C   0  0  0  0  0  0  0  0  0  0  0  0
    9.1706   32.0260    8.7290 C   0  0  0  0  0  0  0  0  0  0  0  0
    9.2831   32.7306    7.5398 C   0  0  0  0  0  0  0  0  0  0  0  0
    2.3917   26.8745    9.8510 O   0  0  0  0  0  0  0  0  0  0  0  0
    2.5513   24.6043   11.8813 O   0  0  0  0  0  0  0  0  0  0  0  0
    3.4500   22.1410    8.9017 O   0  0  0  0  0  0  0  0  0  0  0  0
    4.7319   28.2698   11.0075 O   0  0  0  0  0  0  0  0  0  0  0  0
    4.0655   25.5089    9.4970 N   0  0  0  0  0  0  0  0  0  0  0  0
  1  2  2  0
  1  3  1  0
  2  4  1  0
  3  6  2  0
  3 28  1  0
  4  8  2  0
  5  9  1  0
  5 12  1  0
  5 31  1  6
  6  8  1  0
  7 11  1  0
  8 11  1  0
  9 15  1  1
  9 28  1  0
 10 13  1  0
 10 27  2  0
 10 31  1  0
 12 16  1  0
 12 29  2  0
 13 14  2  0
 13 17  1  0
 14 18  1  0
 17 19  2  0
 17 30  1  0
 18 20  2  0
 19 20  1  0
 20 21  1  0
 21 22  2  0
 21 23  1  0
 22 24  1  0
 23 25  2  0
 24 26  2  0
 25 26  1  0
M  END
$$$$

     RDKit          3D

 17 18  0  0  0  0  0  0  0  0999 V2000
    1.6039   27.3900   13.7431 C   0  0  0  0  0  0  0  0  0  0  0  0
    2.6078   24.3445   10.7971 C   0  0  0  0  0  0  0  0  0  0  0  0
    2.5750   25.0541   11.9947 C   0  0  0  0  0  0  0  0  0  0  0  0
    3.0811   26.3567   12.0523 C   0  0  0  0  0  0  0  0  0  0  0  0
    3.0938   27.1341   13.3394 C   0  0  2  0  0  0  0  0  0  0  0  0
    3.1654   24.9182    9.6585 C   0  0  0  0  0  0  0  0  0  0  0  0
    3.6364   26.2638    9.6791 C   0  0  0  0  0  0  0  0  0  0  0  0
    3.6078   26.9813   10.8873 C   0  0  0  0  0  0  0  0  0  0  0  0
    3.8344   22.9330    8.4626 C   0  0  0  0  0  0  0  0  0  0  0  0
    3.8228   26.7307   14.5826 C   0  0  0  0  0  0  0  0  0  0  0  0
    4.2924   24.4185   15.4392 C   0  0  0  0  0  0  0  0  0  0  0  0
    4.6982   25.5302   14.6974 C   0  0  0  0  0  0  0  0  0  0  0  0
    5.9710   25.5310   14.1242 C   0  0  0  0  0  0  0  0  0  0  0  0
    6.3595   23.3552   15.0837 C   0  0  0  0  0  0  0  0  0  0  0  0
    6.8171   24.4320   14.3279 C   0  0  0  0  0  0  0  0  0  0  0  0
    3.1886   24.1917    8.5407 O   0  0  0  0  0  0  0  0  0  0  0  0
    5.1157   23.3621   15.6294 N   0  0  0  0  0  0  0  0  0  0  0  0
  5  1  1  1
  2  3  2  0
  2  6  1  0
  3  4  1  0
  4  5  1  0
  4  8  2  0
  5 10  1  0
  6  7  2  0
  6 16  1  0
  7  8  1  0
  9 16  1  0
 10 12  1  0
 11 12  2  0
 11 17  1  0
 12 13  1  0
 13 15  2  0
 14 15  1  0
 14 17  2  0
M  END
$$$$

     RDKit          3D

 16 17  0  0  0  0  0  0  0  0999 V2000
    1.9670   26.1227   15.7805 C   0  0  0  0  0  0  0  0  0  0  0  0
    2.3596   26.5285   14.5633 C   0  0  0  0  0  0  0  0  0  0  0  0
    2.6752   24.7140    9.8347 C   0  0  0  0  0  0  0  0  0  0  0  0
    2.7164   25.1712   16.4431 C   0  0  0  0  0  0  0  0  0  0  0  0
    3.3181   26.2211   11.6323 C   0  0  0  0  0  0  0  0  0  0  0  0
    3.4799   26.0618   13.9673 C   0  0  0  0  0  0  0  0  0  0  0  0
    3.4318   26.7630   10.3543 C   0  0  0  0  0  0  0  0  0  0  0  0
    3.8146   24.5847   15.8397 C   0  0  0  0  0  0  0  0  0  0  0  0
    3.9254   26.7491   12.7924 C   0  0  0  0  0  0  0  0  0  0  0  0
    3.9408   28.1387   10.0994 C   0  0  0  0  0  0  0  0  0  0  0  0
    4.1967   25.0200   14.5644 C   0  0  0  0  0  0  0  0  0  0  0  0
    2.3032   23.6632    9.1021 N   0  0  0  0  0  0  0  0  0  0  0  0
    3.0438   25.9156    9.3960 N   0  0  0  0  0  0  0  0  0  0  0  0
    2.7156   24.5719   11.4862 S   0  0  0  0  0  0  0  0  0  0  0  0
    4.4367   23.6659   16.5081 F   0  0  0  0  0  0  0  0  0  0  0  0
    5.5607   24.2682   13.8029 Cl  0  0  0  0  0  0  0  0  0  0  0  0
  1  2  2  0
  1  4  1  0
  2  6  1  0
  3 12  2  0
  3 13  1  0
  3 14  1  0
  4  8  2  0
  5  7  2  0
  5  9  1  0
  5 14  1  0
  6  9  1  0
  6 11  2  0
  7 10  1  0
  7 13  1  0
  8 11  1  0
  8 15  1  0
 11 16  1  0
M  END
$$$$

     RDKit          3D

 12 13  0  0  0  0  0  0  0  0999 V2000
    2.3039   25.0708   14.3770 C   0  0  0  0  0  0  0  0  0  0  0  0
    2.4377   24.7587   12.9977 C   0  0  0  0  0  0  0  0  0  0  0  0
    2.4453   26.4186   14.7724 C   0  0  0  0  0  0  0  0  0  0  0  0
    2.7219   23.9250   10.7431 C   0  0  0  0  0  0  0  0  0  0  0  0
    2.7751   25.7534   12.1313 C   0  0  0  0  0  0  0  0  0  0  0  0
    2.8075   27.3902   13.8466 C   0  0  0  0  0  0  0  0  0  0  0  0
    2.9515   25.2681   10.8058 C   0  0  0  0  0  0  0  0  0  0  0  0
    2.9423   27.0433   12.5101 C   0  0  0  0  0  0  0  0  0  0  0  0
    3.2967   27.4561   16.7704 C   0  0  0  0  0  0  0  0  0  0  0  0
    2.2578   26.7732   16.1035 O   0  0  0  0  0  0  0  0  0  0  0  0
    2.9176   23.1852    9.7414 O   0  0  0  0  0  0  0  0  0  0  0  0
    2.3929   23.6658   12.2087 N   0  0  0  0  0  0  0  0  0  0  0  0
  1  2  2  0
  1  3  1  0
  2  5  1  0
  2 12  1  0
  3  6  2  0
  3 10  1  0
  4  7  1  0
  4 11  2  0
  4 12  1  0
  5  7  1  0
  5  8  2  0
  6  8  1  0
  9 10  1  0
M  END
$$$$

     RDKit          3D

 15 17  0  0  0  0  0  0  0  0999 V2000
    2.1674   26.7873   15.4732 C   0  0  0  0  0  0  0  0  0  0  0  0
    2.3197   27.1664   14.0654 C   0  0  0  0  0  0  0  0  0  0  0  0
    2.4900   25.4918   15.9438 C   0  0  0  0  0  0  0  0  0  0  0  0
    2.9025   24.8671   13.6681 C   0  0  0  0  0  0  0  0  0  0  0  0
    2.6948   26.1560   13.1868 C   0  0  0  0  0  0  0  0  0  0  0  0
    3.0770   23.9785   12.6000 C   0  0  0  0  0  0  0  0  0  0  0  0
    2.9220   24.5104   15.0024 C   0  0  0  0  0  0  0  0  0  0  0  0
    3.0152   26.1217   11.8122 C   0  0  0  0  0  0  0  0  0  0  0  0
    3.2047   24.7537   11.4989 C   0  0  0  0  0  0  0  0  0  0  0  0
    3.2343   27.0955   10.8541 C   0  0  0  0  0  0  0  0  0  0  0  0
    3.5642   24.3191   10.2105 C   0  0  0  0  0  0  0  0  0  0  0  0
    3.6526   26.6415    9.6140 C   0  0  0  0  0  0  0  0  0  0  0  0
    3.8348   25.3189    9.2707 C   0  0  0  0  0  0  0  0  0  0  0  0
    3.3703   23.3408   15.3005 O   0  0  0  0  0  0  0  0  0  0  0  0
    3.5657   22.9960    9.8999 O   0  0  0  0  0  0  0  0  0  0  0  0
  1  2  2  0
  1  3  1  0
  2  5  1  0
  3  7  2  0
  4  5  2  0
  4  6  1  0
  4  7  1  0
  5  8  1  0
  6  9  1  0
  7 14  1  0
  8  9  2  0
  8 10  1  0
  9 11  1  0
 10 12  2  0
 11 13  2  0
 11 15  1  0
 12 13  1  0
M  END
$$$$

     RDKit          3D

 14 15  0  0  0  0  0  0  0  0999 V2000
    2.4284   26.8273   15.5611 C   0  0  0  0  0  0  0  0  0  0  0  0
    2.5010   26.9357   14.1735 C   0  0  0  0  0  0  0  0  0  0  0  0
    2.8326   23.7054    9.1852 C   0  0  0  0  0  0  0  0  0  0  0  0
    3.0174   25.8886   13.3930 C   0  0  0  0  0  0  0  0  0  0  0  0
    2.9281   25.6690   16.2040 C   0  0  0  0  0  0  0  0  0  0  0  0
    3.0425   25.9243   11.9955 C   0  0  0  0  0  0  0  0  0  0  0  0
    3.5044   24.6323   15.4747 C   0  0  0  0  0  0  0  0  0  0  0  0
    3.5980   24.9030   11.2441 C   0  0  0  0  0  0  0  0  0  0  0  0
    3.5504   24.7396   14.0651 C   0  0  0  0  0  0  0  0  0  0  0  0
    3.5957   24.9278    9.7300 C   0  0  0  0  0  0  0  0  0  0  0  0
    4.1176   23.7737   11.9058 C   0  0  0  0  0  0  0  0  0  0  0  0
    4.1128   23.6766   13.2919 C   0  0  0  0  0  0  0  0  0  0  0  0
    1.5648   23.7369    9.0785 O   0  0  0  0  0  0  0  0  0  0  0  0
    3.4715   22.6953    8.8968 O   0  0  0  0  0  0  0  0  0  0  0  0
  1  2  2  0
  1  5  1  0
  2  4  1  0
  3 10  1  0
  3 13  2  0
  3 14  1  0
  4  6  2  0
  4  9  1  0
  5  7  2  0
  6  8  1  0
  7  9  1  0
  8 10  1  0
  8 11  2  0
  9 12  2  0
 11 12  1  0
M  END
$$$$

     RDKit          3D

 20 22  0  0  0  0  0  0  0  0999 V2000
    1.7554   26.8656   15.2780 C   0  0  0  0  0  0  0  0  0  0  0  0
    2.2699   25.8926   16.1634 C   0  0  0  0  0  0  0  0  0  0  0  0
    2.4150   27.0997   14.0338 C   0  0  0  0  0  0  0  0  0  0  0  0
    2.6986   23.9692    9.5181 C   0  0  0  0  0  0  0  0  0  0  0  0
    2.7367   25.3230    9.3206 C   0  0  0  0  0  0  0  0  0  0  0  0
    3.1429   23.3770   10.6676 C   0  0  0  0  0  0  0  0  0  0  0  0
    3.2686   26.1518   10.3237 C   0  0  0  0  0  0  0  0  0  0  0  0
    3.4921   25.2472   15.8665 C   0  0  0  0  0  0  0  0  0  0  0  0
    3.6258   26.4945   13.7816 C   0  0  0  0  0  0  0  0  0  0  0  0
    3.7123   24.1234   11.7025 C   0  0  0  0  0  0  0  0  0  0  0  0
    3.7486   25.5299   11.5098 C   0  0  0  0  0  0  0  0  0  0  0  0
    4.1698   23.3515   12.9228 C   0  0  2  0  0  0  0  0  0  0  0  0
    4.2114   25.5808   14.6751 C   0  0  2  0  0  0  0  0  0  0  0  0
    4.2695   26.6692   12.4299 C   0  0  0  0  0  0  0  0  0  0  0  0
    5.4529   23.8158   13.4654 C   0  0  2  0  0  0  0  0  0  0  0  0
    5.4826   24.9392   14.3578 C   0  0  0  0  0  0  0  0  0  0  0  0
    6.6107   23.5350   12.6599 C   0  0  0  0  0  0  0  0  0  0  0  0
    4.0236   22.0481   12.8012 O   0  0  0  0  0  0  0  0  0  0  0  0
    4.0003   24.3147   16.6500 O   0  0  0  0  0  0  0  0  0  0  0  0
    6.8664   25.9294   14.5758 S   0  0  0  0  0  0  0  0  0  0  0  0
  1  2  1  0
  1  3  1  0
  2  8  2  0
  3  9  2  0
  4  5  2  0
  4  6  1  0
  5  7  1  0
  6 10  2  0
  7 11  2  0
 13  8  1  6
  8 19  1  0
  9 13  1  0
  9 14  1  0
 10 11  1  0
 10 12  1  0
 11 14  1  0
 12 15  1  0
 12 18  1  6
 13 16  1  0
 15 16  1  0
 15 17  1  6
 16 20  2  0
M  END
$$$$

     RDKit          3D

 14 15  0  0  0  0  0  0  0  0999 V2000
    1.9814   26.2101   14.1491 C   0  0  0  0  0  0  0  0  0  0  0  0
    1.9810   26.3324   15.5711 C   0  0  0  0  0  0  0  0  0  0  0  0
    2.4890   23.4981    9.2387 C   0  0  0  0  0  0  0  0  0  0  0  0
    2.7674   24.9437   11.2534 C   0  0  0  0  0  0  0  0  0  0  0  0
    3.1608   26.3819   13.3833 C   0  0  0  0  0  0  0  0  0  0  0  0
    3.2127   26.1960   11.8252 C   0  0  0  0  0  0  0  0  0  0  0  0
    3.1737   26.6494   16.2263 C   0  0  0  0  0  0  0  0  0  0  0  0
    3.4399   25.7110    9.0629 C   0  0  0  0  0  0  0  0  0  0  0  0
    3.8215   26.9397    9.5772 C   0  0  0  0  0  0  0  0  0  0  0  0
    3.6903   27.2474   10.9237 C   0  0  0  0  0  0  0  0  0  0  0  0
    4.3245   26.7481   14.0732 C   0  0  0  0  0  0  0  0  0  0  0  0
    4.3298   26.8550   15.4571 C   0  0  0  0  0  0  0  0  0  0  0  0
    2.3308   23.9664   12.0015 O   0  0  0  0  0  0  0  0  0  0  0  0
    2.9112   24.7603    9.8905 N   0  0  0  0  0  0  0  0  0  0  0  0
  1  2  2  0
  1  5  1  0
  2  7  1  0
  3 14  1  0
  4  6  1  0
  4 13  2  0
  4 14  1  0
  5  6  1  0
  5 11  2  0
  6 10  2  0
  7 12  2  0
  8  9  2  0
  8 14  1  0
  9 10  1  0
 11 12  1  0
M  END
$$$$

     RDKit          3D

 10 10  0  0  0  0  0  0  0  0999 V2000
    2.2687   26.6613   15.1265 C   0  0  0  0  0  0  0  0  0  0  0  0
    2.3776   27.1792   13.8089 C   0  0  0  0  0  0  0  0  0  0  0  0
    2.6295   24.4197   14.2801 C   0  0  0  0  0  0  0  0  0  0  0  0
    2.4131   25.2753   15.3603 C   0  0  0  0  0  0  0  0  0  0  0  0
    2.6262   26.3195   12.7704 C   0  0  0  0  0  0  0  0  0  0  0  0
    2.8549   23.9841   11.8554 C   0  0  0  0  0  0  0  0  0  0  0  0
    2.7049   24.9349   12.9644 C   0  0  0  0  0  0  0  0  0  0  0  0
    2.0089   27.5401   16.1481 O   0  0  0  0  0  0  0  0  0  0  0  0
    2.1814   24.1482   10.7793 O   0  0  0  0  0  0  0  0  0  0  0  0
    3.5543   22.9523   12.0363 O   0  0  0  0  0  0  0  0  0  0  0  0
  1  2  2  0
  1  4  1  0
  1  8  1  0
  2  5  1  0
  3  4  2  0
  3  7  1  0
  5  7  2  0
  6  7  1  0
  6  9  2  0
  6 10  1  0
M  END
$$$$

     RDKit          3D

 19 21  0  0  0  0  0  0  0  0999 V2000
    2.6685   24.5907   13.2851 C   0  0  0  0  0  0  0  0  0  0  0  0
    3.1843   23.8783   12.1652 C   0  0  0  0  0  0  0  0  0  0  0  0
    3.1666   25.6474   16.1620 C   0  0  2  0  0  0  0  0  0  0  0  0
    3.2097   26.0750   11.7007 C   0  0  0  0  0  0  0  0  0  0  0  0
    3.3857   26.8988   13.9867 C   0  0  0  0  0  0  0  0  0  0  0  0
    3.8478   24.6443    9.8599 C   0  0  0  0  0  0  0  0  0  0  0  0
    3.8569   27.0299    9.6576 C   0  0  0  0  0  0  0  0  0  0  0  0
    3.9665   24.5523   16.8900 C   0  0  0  0  0  0  0  0  0  0  0  0
    4.1131   26.2418   15.1341 C   0  0  2  0  0  0  0  0  0  0  0  0
    5.0341   24.1104   15.8076 C   0  0  1  0  0  0  0  0  0  0  0  0
    2.8123   26.6955   17.0417 O   0  0  0  0  0  0  0  0  0  0  0  0
    4.0403   23.4710    9.4077 O   0  0  0  0  0  0  0  0  0  0  0  0
    4.4817   22.7500   15.2841 O   0  0  0  0  0  0  0  0  0  0  0  0
    5.0662   25.1979   14.8161 O   0  0  0  0  0  0  0  0  0  0  0  0
    2.8580   25.9375   12.9978 N   0  0  0  0  0  0  0  0  0  0  0  0
    3.4528   24.7918   11.1703 N   0  0  0  0  0  0  0  0  0  0  0  0
    3.4297   27.1884   10.9921 N   0  0  0  0  0  0  0  0  0  0  0  0
    4.0455   25.7816    9.1269 N   0  0  0  0  0  0  0  0  0  0  0  0
    4.2871   28.0720    8.9568 N   0  0  0  0  0  0  0  0  0  0  0  0
  1  2  1  0
  1 15  1  0
  2 16  1  0
  3  8  1  0
  3  9  1  0
  3 11  1  1
  4 15  1  0
  4 16  1  0
  4 17  2  0
  9  5  1  6
  5 15  1  0
  6 12  2  0
  6 16  1  0
  6 18  1  0
  7 17  1  0
  7 18  1  0
  7 19  2  0
  8 10  1  0
  9 14  1  0
 10 13  1  6
 10 14  1  0
M  END
$$$$

     RDKit          3D

 11 11  0  0  0  0  0  0  0  0999 V2000
    2.2022   25.3559   15.1907 C   0  0  0  0  0  0  0  0  0  0  0  0
    2.1736   26.7293   14.9214 C   0  0  0  0  0  0  0  0  0  0  0  0
    2.5909   24.4508   14.1963 C   0  0  0  0  0  0  0  0  0  0  0  0
    2.5510   27.2088   13.6353 C   0  0  0  0  0  0  0  0  0  0  0  0
    2.8966   26.2825   12.6436 C   0  0  0  0  0  0  0  0  0  0  0  0
    2.9985   23.8873   10.4574 C   0  0  0  0  0  0  0  0  0  0  0  0
    3.1606   23.8483   11.8817 C   0  0  0  0  0  0  0  0  0  0  0  0
    2.9136   24.8995   12.8999 C   0  0  0  0  0  0  0  0  0  0  0  0
    4.1823   23.7774    9.7054 C   0  0  0  0  0  0  0  0  0  0  0  0
    4.4399   23.4457    8.3714 C   0  0  0  0  0  0  0  0  0  0  0  0
    1.8434   24.0449    9.8222 N   0  0  0  0  0  0  0  0  0  0  0  0
  1  2  2  0
  1  3  1  0
  2  4  1  0
  3  8  2  0
  4  5  2  0
  5  8  1  0
  6  7  1  0
  6  9  1  0
  6 11  2  0
  7  8  1  0
  9 10  1  0
M  END
$$$$

     RDKit          3D

 20 22  0  0  0  0  0  0  0  0999 V2000
    1.9226   27.3697   14.1312 C   0  0  0  0  0  0  0  0  0  0  0  0
    2.1705   27.5020   15.5396 C   0  0  0  0  0  0  0  0  0  0  0  0
    2.4152   24.1956   10.7890 C   0  0  0  0  0  0  0  0  0  0  0  0
    2.4921   24.7407   12.0904 C   0  0  0  0  0  0  0  0  0  0  0  0
    2.8525   24.9595    9.7272 C   0  0  0  0  0  0  0  0  0  0  0  0
    3.0276   26.0045   12.2754 C   0  0  0  0  0  0  0  0  0  0  0  0
    2.9590   26.5715   13.6202 C   0  0  0  0  0  0  0  0  0  0  0  0
    3.3985   26.2273    9.9271 C   0  0  0  0  0  0  0  0  0  0  0  0
    3.5404   26.6942   11.2150 C   0  0  0  0  0  0  0  0  0  0  0  0
    3.4342   26.8930   15.8821 C   0  0  0  0  0  0  0  0  0  0  0  0
    3.7012   26.1900   14.6779 C   0  0  0  0  0  0  0  0  0  0  0  0
    4.4489   23.8113   14.8456 C   0  0  0  0  0  0  0  0  0  0  0  0
    4.7240   25.1474   14.6106 C   0  0  0  0  0  0  0  0  0  0  0  0
    5.4900   22.8788   14.7680 C   0  0  0  0  0  0  0  0  0  0  0  0
    5.9885   25.5798   14.2501 C   0  0  0  0  0  0  0  0  0  0  0  0
    6.7803   23.3408   14.4884 C   0  0  0  0  0  0  0  0  0  0  0  0
    7.0577   24.6772   14.2170 C   0  0  0  0  0  0  0  0  0  0  0  0
    2.6642   24.5576    8.4677 O   0  0  0  0  0  0  0  0  0  0  0  0
    5.1800   21.4958   14.7538 O   0  0  0  0  0  0  0  0  0  0  0  0
    6.1952   27.2812   13.7373 Cl  0  0  0  0  0  0  0  0  0  0  0  0
  1  2  1  0
  1  7  1  0
  2 10  1  0
  3  4  1  0
  3  5  2  0
  4  6  1  0
  5  8  1  0
  5 18  1  0
  6  7  1  0
  6  9  2  0
  7 11  2  0
  8  9  1  0
 10 11  1  0
 11 13  1  0
 12 13  2  0
 12 14  1  0
 13 15  1  0
 14 16  2  0
 14 19  1  0
 15 17  2  0
 15 20  1  0
 16 17  1  0
M  END
$$$$

     RDKit          3D

 10 10  0  0  0  0  0  0  0  0999 V2000
    2.3301   24.6543   13.2077 C   0  0  0  0  0  0  0  0  0  0  0  0
    2.1691   25.6286   14.1958 C   0  0  0  0  0  0  0  0  0  0  0  0
    2.4240   26.9580   13.8939 C   0  0  0  0  0  0  0  0  0  0  0  0
    2.7694   24.9631   11.9168 C   0  0  0  0  0  0  0  0  0  0  0  0
    2.8418   27.2669   12.6122 C   0  0  0  0  0  0  0  0  0  0  0  0
    2.9580   23.9253   10.8445 C   0  0  0  0  0  0  0  0  0  0  0  0
    3.0353   26.2963   11.6276 C   0  0  0  0  0  0  0  0  0  0  0  0
    2.5137   24.1638    9.7161 O   0  0  0  0  0  0  0  0  0  0  0  0
    3.5671   22.8505   11.0349 O   0  0  0  0  0  0  0  0  0  0  0  0
    1.8061   25.4482   15.8784 Cl  0  0  0  0  0  0  0  0  0  0  0  0
  1  2  2  0
  1  4  1  0
  2  3  1  0
  2 10  1  0
  3  5  2  0
  4  6  1  0
  4  7  2  0
  5  7  1  0
  6  8  2  0
  6  9  1  0
M  END
$$$$

     RDKit          3D

 11 12  0  0  0  0  0  0  0  0999 V2000
    2.4836   27.0264   13.8857 C   0  0  0  0  0  0  0  0  0  0  0  0
    2.5952   27.0606   15.3016 C   0  0  0  0  0  0  0  0  0  0  0  0
    2.8897   25.9042   11.7467 C   0  0  0  0  0  0  0  0  0  0  0  0
    2.9446   25.9081   13.1527 C   0  0  0  0  0  0  0  0  0  0  0  0
    3.3740   24.8052   11.0390 C   0  0  0  0  0  0  0  0  0  0  0  0
    3.1984   26.0011   15.9559 C   0  0  0  0  0  0  0  0  0  0  0  0
    3.5399   24.7994   13.8640 C   0  0  0  0  0  0  0  0  0  0  0  0
    3.6608   24.8629   15.2800 C   0  0  0  0  0  0  0  0  0  0  0  0
    3.9187   23.6810   11.7155 C   0  0  0  0  0  0  0  0  0  0  0  0
    4.0227   23.6670   13.1186 C   0  0  0  0  0  0  0  0  0  0  0  0
    4.3700   22.6665   11.0083 O   0  0  0  0  0  0  0  0  0  0  0  0
  1  2  2  0
  1  4  1  0
  2  6  1  0
  3  4  2  0
  3  5  1  0
  4  7  1  0
  5  9  2  0
  6  8  2  0
  7  8  1  0
  7 10  2  0
  9 10  1  0
  9 11  1  0
M  END
$$$$

     RDKit          3D

 19 22  0  0  0  0  0  0  0  0999 V2000
    2.3166   26.3943   13.6793 C   0  0  0  0  0  0  0  0  0  0  0  0
    2.3234   26.9414   14.9942 C   0  0  0  0  0  0  0  0  0  0  0  0
    3.0929   25.3521    9.4428 C   0  0  0  0  0  0  0  0  0  0  0  0
    3.1627   25.8820   10.7811 C   0  0  0  0  0  0  0  0  0  0  0  0
    3.2498   23.9909    9.2571 C   0  0  0  0  0  0  0  0  0  0  0  0
    3.3469   25.0008   11.8758 C   0  0  0  0  0  0  0  0  0  0  0  0
    3.3711   25.5565   13.2584 C   0  0  0  0  0  0  0  0  0  0  0  0
    3.3562   26.7076   15.9044 C   0  0  0  0  0  0  0  0  0  0  0  0
    3.4231   23.6413   11.5949 C   0  0  0  0  0  0  0  0  0  0  0  0
    4.3798   25.2822   14.1959 C   0  0  0  0  0  0  0  0  0  0  0  0
    4.3923   25.8804   15.4704 C   0  0  0  0  0  0  0  0  0  0  0  0
    5.2283   23.0862   13.4408 C   0  0  2  0  0  0  0  0  0  0  0  0
    5.4907   24.3768   13.9127 C   0  0  2  0  0  0  0  0  0  0  0  0
    6.2674   22.2165   13.0984 C   0  0  0  0  0  0  0  0  0  0  0  0
    6.7871   24.7116   14.2060 C   0  0  0  0  0  0  0  0  0  0  0  0
    7.5179   22.5947   13.3748 C   0  0  0  0  0  0  0  0  0  0  0  0
    7.7755   23.8276   13.9324 C   0  0  0  0  0  0  0  0  0  0  0  0
    3.4422   23.1766   10.3125 N   0  0  0  0  0  0  0  0  0  0  0  0
    3.8652   22.8576   12.8670 N   0  0  0  0  0  0  0  0  0  0  0  0
  1  2  2  0
  1  7  1  0
  2  8  1  0
  3  4  1  0
  3  5  2  0
  4  6  2  0
  5 18  1  0
  6  7  1  0
  6  9  1  0
  7 10  2  0
  8 11  2  0
  9 18  2  0
  9 19  1  0
 10 11  1  0
 10 13  1  0
 12 13  1  0
 12 14  1  0
 12 19  1  6
 13 15  1  1
 14 16  2  0
 15 17  2  0
 16 17  1  0
M  END
$$$$

     RDKit          3D

 16 17  0  0  0  0  0  0  0  0999 V2000
    2.0382   26.8961   14.0292 C   0  0  0  0  0  0  0  0  0  0  0  0
    2.1490   27.0408   15.4576 C   0  0  0  0  0  0  0  0  0  0  0  0
    2.6618   23.6536    9.1522 C   0  0  0  0  0  0  0  0  0  0  0  0
    2.7855   25.0170   11.2109 C   0  0  0  0  0  0  0  0  0  0  0  0
    2.9997   24.9108    9.8463 C   0  0  0  0  0  0  0  0  0  0  0  0
    3.1236   26.3104   13.3339 C   0  0  0  0  0  0  0  0  0  0  0  0
    3.1664   26.2005   11.8512 C   0  0  0  0  0  0  0  0  0  0  0  0
    3.3908   26.7993   16.1507 C   0  0  0  0  0  0  0  0  0  0  0  0
    3.4696   25.9950    9.1249 C   0  0  0  0  0  0  0  0  0  0  0  0
    3.6349   27.2986   11.1127 C   0  0  0  0  0  0  0  0  0  0  0  0
    3.7764   27.1736    9.7466 C   0  0  0  0  0  0  0  0  0  0  0  0
    4.3691   26.1200   13.9907 C   0  0  0  0  0  0  0  0  0  0  0  0
    4.4979   26.4331   15.3726 C   0  0  0  0  0  0  0  0  0  0  0  0
    3.5330   22.7405    9.0896 O   0  0  0  0  0  0  0  0  0  0  0  0
    1.5385   23.5295    8.7483 N   0  0  0  0  0  0  0  0  0  0  0  0
    2.0758   24.0880   11.8549 F   0  0  0  0  0  0  0  0  0  0  0  0
  1  2  1  0
  1  6  2  0
  2  8  1  0
  3  5  1  0
  3 14  2  0
  3 15  1  0
  4  5  2  0
  4  7  1  0
  4 16  1  0
  5  9  1  0
  6  7  1  0
  6 12  1  0
  7 10  2  0
  8 13  2  0
  9 11  2  0
 10 11  1  0
 12 13  1  0
M  END
$$$$

     RDKit          3D

 10  9  0  0  0  0  0  0  0  0999 V2000
    2.8501   24.1625   11.1488 C   0  0  0  0  0  0  0  0  0  0  0  0
    2.6729   25.4296   11.8997 C   0  0  1  0  0  0  0  0  0  0  0  0
    3.0591   25.3529   13.3648 C   0  0  0  0  0  0  0  0  0  0  0  0
    2.9554   26.7145   14.0665 C   0  0  2  0  0  0  0  0  0  0  0  0
    3.2916   26.6331   15.5686 C   0  0  0  0  0  0  0  0  0  0  0  0
    1.6525   27.2120   13.9122 O   0  0  0  0  0  0  0  0  0  0  0  0
    2.0494   24.0707   10.1128 O   0  0  0  0  0  0  0  0  0  0  0  0
    2.1517   24.4003   13.9567 O   0  0  0  0  0  0  0  0  0  0  0  0
    2.9436   26.5311   11.1755 O   0  0  0  0  0  0  0  0  0  0  0  0
    4.1433   25.5358   15.7911 O   0  0  0  0  0  0  0  0  0  0  0  0
  1  2  1  0
  1  7  1  0
  2  3  1  0
  2  9  1  6
  3  4  1  0
  3  8  1  0
  4  5  1  0
  4  6  1  1
  5 10  1  0
M  END
$$$$

     RDKit          3D

 15 16  0  0  0  0  0  0  0  0999 V2000
    2.0141   26.1915   15.2041 C   0  0  1  0  0  0  0  0  0  0  0  0
    2.0453   26.7734   13.8105 C   0  0  0  0  0  0  0  0  0  0  0  0
    2.3288   24.7391   15.1568 C   0  0  0  0  0  0  0  0  0  0  0  0
    2.7398   24.4876   13.8040 C   0  0  0  0  0  0  0  0  0  0  0  0
    2.8304   25.7439   11.6922 C   0  0  0  0  0  0  0  0  0  0  0  0
    2.9353   24.6110   10.9418 C   0  0  0  0  0  0  0  0  0  0  0  0
    3.1764   26.7347   16.0167 C   0  0  0  0  0  0  0  0  0  0  0  0
    3.1942   27.0150   11.2142 C   0  0  0  0  0  0  0  0  0  0  0  0
    3.4416   24.6729    9.6876 C   0  0  0  0  0  0  0  0  0  0  0  0
    3.8495   25.8845    9.1572 C   0  0  0  0  0  0  0  0  0  0  0  0
    3.7455   27.0284    9.9208 C   0  0  0  0  0  0  0  0  0  0  0  0
    3.0147   26.6658   17.2091 O   0  0  0  0  0  0  0  0  0  0  0  0
    4.2151   27.0939   15.3823 O   0  0  0  0  0  0  0  0  0  0  0  0
    2.4151   25.6374   13.0103 N   0  0  0  0  0  0  0  0  0  0  0  0
    4.3373   28.5070    9.3231 Cl  0  0  0  0  0  0  0  0  0  0  0  0
  1  2  1  0
  1  3  1  0
  1  7  1  1
  2 14  1  0
  3  4  1  0
  4 14  1  0
  5  6  2  0
  5  8  1  0
  5 14  1  0
  6  9  1  0
  7 12  2  0
  7 13  1  0
  8 11  2  0
  9 10  2  0
 10 11  1  0
 11 15  1  0
M  END
$$$$

     RDKit          3D

 13 15  0  0  0  0  0  0  0  0999 V2000
    2.1254   25.2465   15.2212 C   0  0  0  0  0  0  0  0  0  0  0  0
    2.3014   24.3953   14.1419 C   0  0  0  0  0  0  0  0  0  0  0  0
    2.2468   26.6179   15.1139 C   0  0  0  0  0  0  0  0  0  0  0  0
    2.6374   24.9623   12.8841 C   0  0  0  0  0  0  0  0  0  0  0  0
    2.6297   27.2126   13.9076 C   0  0  0  0  0  0  0  0  0  0  0  0
    2.8323   26.3594   12.7744 C   0  0  0  0  0  0  0  0  0  0  0  0
    3.1459   24.6462   10.6528 C   0  0  0  0  0  0  0  0  0  0  0  0
    3.3739   26.0268   10.4854 C   0  0  0  0  0  0  0  0  0  0  0  0
    3.2021   26.9235   11.5109 C   0  0  0  0  0  0  0  0  0  0  0  0
    3.8574   24.8840    8.5696 C   0  0  0  0  0  0  0  0  0  0  0  0
    3.7602   26.2245    9.1358 C   0  0  0  0  0  0  0  0  0  0  0  0
    2.7636   24.1255   11.8137 N   0  0  0  0  0  0  0  0  0  0  0  0
    3.4079   23.9612    9.5013 N   0  0  0  0  0  0  0  0  0  0  0  0
  1  2  1  0
  1  3  2  0
  2  4  1  0
  3  5  1  0
  4  6  2  0
  4 12  1  0
  5  6  1  0
  6  9  1  0
  7  8  1  0
  7 12  2  0
  7 13  1  0
  8  9  2  0
  8 11  1  0
 10 11  1  0
 10 13  1  0
M  END
$$$$

     RDKit          3D

 21 23  0  0  0  0  0  0  0  0999 V2000
    1.5807   27.3473   14.1939 C   0  0  0  0  0  0  0  0  0  0  0  0
    1.8611   27.8015   15.6832 C   0  0  0  0  0  0  0  0  0  0  0  0
    2.6371   24.0886   11.1227 C   0  0  0  0  0  0  0  0  0  0  0  0
    2.5541   24.7326   12.3827 C   0  0  0  0  0  0  0  0  0  0  0  0
    2.8775   26.7739   13.8773 C   0  0  2  0  0  0  0  0  0  0  0  0
    2.9814   26.0703   12.5751 C   0  0  0  0  0  0  0  0  0  0  0  0
    3.2004   24.8191   10.0549 C   0  0  0  0  0  0  0  0  0  0  0  0
    3.2606   27.2932   16.1490 C   0  0  0  0  0  0  0  0  0  0  0  0
    3.6160   22.9553    8.8109 C   0  0  0  0  0  0  0  0  0  0  0  0
    3.5717   26.1540   10.2326 C   0  0  0  0  0  0  0  0  0  0  0  0
    3.4970   26.7368   11.4577 C   0  0  0  0  0  0  0  0  0  0  0  0
    4.4058   24.3199   16.0264 C   0  0  0  0  0  0  0  0  0  0  0  0
    4.6223   25.4163   15.1523 C   0  0  0  0  0  0  0  0  0  0  0  0
    5.2719   23.2067   15.9663 C   0  0  0  0  0  0  0  0  0  0  0  0
    5.7430   25.4500   14.3762 C   0  0  0  0  0  0  0  0  0  0  0  0
    6.3883   23.2466   15.1318 C   0  0  0  0  0  0  0  0  0  0  0  0
    6.6437   24.3920   14.3551 C   0  0  0  0  0  0  0  0  0  0  0  0
    3.3765   24.2329   16.8132 O   0  0  0  0  0  0  0  0  0  0  0  0
    3.4301   24.2726    8.8351 O   0  0  0  0  0  0  0  0  0  0  0  0
    3.5570   26.4146   15.0556 N   0  0  0  0  0  0  0  0  0  0  0  0
    5.9424   26.6597   13.7017 F   0  0  0  0  0  0  0  0  0  0  0  0
  1  2  1  0
  1  5  1  0
  2  8  1  0
  3  4  2  0
  3  7  1  0
  4  6  1  0
  5  6  1  6
  5 20  1  0
  6 11  2  0
  7 10  2  0
  7 19  1  0
  8 20  1  0
  9 19  1  0
 10 11  1  0
 12 13  2  0
 12 14  1  0
 12 18  1  0
 13 15  1  0
 13 20  1  0
 14 16  2  0
 15 17  2  0
 15 21  1  0
 16 17  1  0
M  END
$$$$

     RDKit          3D

 14 15  0  0  0  0  0  0  0  0999 V2000
    2.3927   24.7286    9.8257 C   0  0  0  0  0  0  0  0  0  0  0  0
    2.3782   26.3524   16.1479 C   0  0  0  0  0  0  0  0  0  0  0  0
    2.8917   25.1270   16.5184 C   0  0  0  0  0  0  0  0  0  0  0  0
    2.7033   26.9316   14.9259 C   0  0  0  0  0  0  0  0  0  0  0  0
    3.4133   26.1258   11.5356 C   0  0  0  0  0  0  0  0  0  0  0  0
    3.5732   26.2385   14.0620 C   0  0  0  0  0  0  0  0  0  0  0  0
    3.5525   26.6412   10.2595 C   0  0  0  0  0  0  0  0  0  0  0  0
    3.7630   24.4191   15.6754 C   0  0  0  0  0  0  0  0  0  0  0  0
    4.1260   24.9931   14.4568 C   0  0  0  0  0  0  0  0  0  0  0  0
    3.9394   26.8240   12.7347 C   0  0  0  0  0  0  0  0  0  0  0  0
    4.1837   27.9116    9.8980 C   0  0  0  0  0  0  0  0  0  0  0  0
    1.7515   23.7643    9.1300 N   0  0  0  0  0  0  0  0  0  0  0  0
    2.9751   25.8340    9.3326 N   0  0  0  0  0  0  0  0  0  0  0  0
    2.5539   24.6457   11.5121 S   0  0  0  0  0  0  0  0  0  0  0  0
  1 12  2  0
  1 13  1  0
  1 14  1  0
  2  3  2  0
  2  4  1  0
  3  8  1  0
  4  6  2  0
  5  7  1  0
  5 10  2  3
  5 14  1  0
  6  9  1  0
  6 10  1  0
  7 11  1  0
  7 13  2  0
  8  9  2  0
M  END
$$$$

     RDKit          3D

 11 12  0  0  0  0  0  0  0  0999 V2000
    2.3762   24.6509   13.6141 C   0  0  0  0  0  0  0  0  0  0  0  0
    2.3878   25.5229   14.6395 C   0  0  0  0  0  0  0  0  0  0  0  0
    2.6480   24.9922   12.3117 C   0  0  0  0  0  0  0  0  0  0  0  0
    2.7503   24.3365    9.9901 C   0  0  0  0  0  0  0  0  0  0  0  0
    2.8841   26.8060   14.3931 C   0  0  0  0  0  0  0  0  0  0  0  0
    3.3163   25.5885    9.6476 C   0  0  0  0  0  0  0  0  0  0  0  0
    3.1684   26.2492   12.0331 C   0  0  0  0  0  0  0  0  0  0  0  0
    3.2885   27.1392   13.1107 C   0  0  0  0  0  0  0  0  0  0  0  0
    3.5054   26.5746   10.6769 C   0  0  0  0  0  0  0  0  0  0  0  0
    2.5700   23.3554    9.1349 O   0  0  0  0  0  0  0  0  0  0  0  0
    2.4474   24.0669   11.2851 O   0  0  0  0  0  0  0  0  0  0  0  0
  1  2  2  0
  1  3  1  0
  2  5  1  0
  3  7  2  0
  3 11  1  0
  4  6  1  0
  4 10  2  0
  4 11  1  0
  5  8  2  0
  6  9  2  0
  7  8  1  0
  7  9  1  0
M  END
$$$$

     RDKit          3D

 14 16  0  0  0  0  0  0  0  0999 V2000
    3.1203   26.4196   12.4487 C   0  0  0  0  0  0  0  0  0  0  0  0
    3.1640   25.1560   16.3881 C   0  0  0  0  0  0  0  0  0  0  0  0
    3.3200   25.1727    9.1015 C   0  0  0  0  0  0  0  0  0  0  0  0
    3.2538   25.5373   11.4336 C   0  0  0  0  0  0  0  0  0  0  0  0
    3.1678   26.0078   10.1767 C   0  0  0  0  0  0  0  0  0  0  0  0
    3.2182   26.0245   13.7573 C   0  0  0  0  0  0  0  0  0  0  0  0
    3.3169   26.5800   16.1420 C   0  0  0  0  0  0  0  0  0  0  0  0
    3.2626   27.0129   14.7584 C   0  0  0  0  0  0  0  0  0  0  0  0
    3.6224   23.8299    9.3510 C   0  0  0  0  0  0  0  0  0  0  0  0
    3.5676   24.1908   11.7010 C   0  0  0  0  0  0  0  0  0  0  0  0
    3.5136   24.6866   14.0556 C   0  0  0  0  0  0  0  0  0  0  0  0
    3.7249   23.3060   10.6470 C   0  0  0  0  0  0  0  0  0  0  0  0
    3.6843   23.7673   13.0369 C   0  0  0  0  0  0  0  0  0  0  0  0
    3.7438   24.2836   15.3896 C   0  0  0  0  0  0  0  0  0  0  0  0
  1  4  2  0
  1  6  1  0
  2  7  1  0
  2 14  1  0
  3  5  2  0
  3  9  1  0
  4  5  1  0
  4 10  1  0
  6  8  1  0
  6 11  2  0
  7  8  2  0
  9 12  2  0
 10 12  1  0
 10 13  2  0
 11 13  1  0
 11 14  1  0
M  END
$$$$

     RDKit          3D

 13 14  0  0  0  0  0  0  0  0999 V2000
    1.9802   26.5953   13.8368 C   0  0  0  0  0  0  0  0  0  0  0  0
    1.9632   26.7432   15.2106 C   0  0  0  0  0  0  0  0  0  0  0  0
    2.9154   23.6575   12.0066 C   0  0  0  0  0  0  0  0  0  0  0  0
    3.1445   24.8997   11.2050 C   0  0  0  0  0  0  0  0  0  0  0  0
    3.1604   26.8985   15.9135 C   0  0  0  0  0  0  0  0  0  0  0  0
    3.2735   26.2027   11.7406 C   0  0  0  0  0  0  0  0  0  0  0  0
    3.1899   26.5444   13.1653 C   0  0  0  0  0  0  0  0  0  0  0  0
    3.6510   27.3067   10.9432 C   0  0  0  0  0  0  0  0  0  0  0  0
    3.6707   25.7851    9.1012 C   0  0  0  0  0  0  0  0  0  0  0  0
    3.8866   27.0555    9.6065 C   0  0  0  0  0  0  0  0  0  0  0  0
    4.3547   26.7227   13.8492 C   0  0  0  0  0  0  0  0  0  0  0  0
    4.3360   26.8831   15.2431 C   0  0  0  0  0  0  0  0  0  0  0  0
    3.3157   24.7453    9.8571 N   0  0  0  0  0  0  0  0  0  0  0  0
  1  2  2  0
  1  7  1  0
  2  5  1  0
  3  4  1  0
  4  6  2  0
  4 13  1  0
  5 12  2  0
  6  7  1  0
  6  8  1  0
  7 11  2  0
  8 10  2  0
  9 10  1  0
  9 13  2  0
 11 12  1  0
M  END
$$$$

     RDKit          3D

 14 15  0  0  0  0  0  0  0  0999 V2000
    2.4320   25.4771   15.8881 C   0  0  0  0  0  0  0  0  0  0  0  0
    2.4265   26.7784   15.5093 C   0  0  0  0  0  0  0  0  0  0  0  0
    2.7638   26.9292   14.1308 C   0  0  0  0  0  0  0  0  0  0  0  0
    2.9716   23.3444    9.1299 C   0  0  0  0  0  0  0  0  0  0  0  0
    3.0922   24.5476    9.9354 C   0  0  0  0  0  0  0  0  0  0  0  0
    2.9331   24.4651   11.3192 C   0  0  0  0  0  0  0  0  0  0  0  0
    3.0637   25.6130   12.0819 C   0  0  0  0  0  0  0  0  0  0  0  0
    2.9164   25.6925   13.5034 C   0  0  0  0  0  0  0  0  0  0  0  0
    3.3830   25.7488    9.3412 C   0  0  0  0  0  0  0  0  0  0  0  0
    3.3899   26.8347   11.4538 C   0  0  0  0  0  0  0  0  0  0  0  0
    3.5373   26.9102   10.0934 C   0  0  0  0  0  0  0  0  0  0  0  0
    1.8497   23.1883    8.5180 O   0  0  0  0  0  0  0  0  0  0  0  0
    3.8972   22.5107    9.0549 O   0  0  0  0  0  0  0  0  0  0  0  0
    2.9007   24.4363   14.5867 S   0  0  0  0  0  0  0  0  0  0  0  0
  1  2  1  0
  1 14  1  0
  2  3  1  0
  3  8  1  0
  4  5  1  0
  4 12  2  0
  4 13  1  0
  5  6  2  0
  5  9  1  0
  6  7  1  0
  7  8  1  0
  7 10  2  0
  8 14  1  0
  9 11  2  0
 10 11  1  0
M  END
$$$$

     RDKit          3D

 14 15  0  0  0  0  0  0  0  0999 V2000
    2.7059   26.9925   15.0406 C   0  0  0  0  0  0  0  0  0  0  0  0
    3.0683   24.9356    9.6923 C   0  0  0  0  0  0  0  0  0  0  0  0
    2.9622   25.5012   10.9460 C   0  0  0  0  0  0  0  0  0  0  0  0
    3.2757   25.3419   13.4215 C   0  0  0  0  0  0  0  0  0  0  0  0
    3.6406   23.6398    9.5253 C   0  0  0  0  0  0  0  0  0  0  0  0
    3.4348   24.7954   12.0617 C   0  0  1  0  0  0  0  0  0  0  0  0
    3.6054   24.9597   15.7885 C   0  0  0  0  0  0  0  0  0  0  0  0
    3.6871   24.5538   14.4797 C   0  0  0  0  0  0  0  0  0  0  0  0
    4.0018   23.5229   11.8327 C   0  0  0  0  0  0  0  0  0  0  0  0
    3.9865   24.1693   16.7428 O   0  0  0  0  0  0  0  0  0  0  0  0
    2.8263   26.6038   13.7100 N   0  0  0  0  0  0  0  0  0  0  0  0
    3.1462   26.1973   16.0604 N   0  0  0  0  0  0  0  0  0  0  0  0
    3.4498   22.8754    8.3471 N   0  0  0  0  0  0  0  0  0  0  0  0
    4.1210   22.9935   10.5998 N   0  0  0  0  0  0  0  0  0  0  0  0
  1 11  1  0
  1 12  2  0
  2  3  2  0
  2  5  1  0
  3  6  1  0
  6  4  1  1
  4  8  1  0
  4 11  2  0
  5 13  2  0
  5 14  1  0
  6  9  1  0
  7  8  1  0
  7 10  2  0
  7 12  1  0
  9 14  2  0
M  END
$$$$

     RDKit          3D

 14 15  0  0  0  0  0  0  0  0999 V2000
    2.2291   26.5228   15.4163 C   0  0  0  0  0  0  0  0  0  0  0  0
    2.5923   24.3822   11.3755 C   0  0  0  0  0  0  0  0  0  0  0  0
    2.6826   25.0407   10.1894 C   0  0  0  0  0  0  0  0  0  0  0  0
    3.0521   25.0443   12.5222 C   0  0  0  0  0  0  0  0  0  0  0  0
    3.1852   26.3293   10.0937 C   0  0  0  0  0  0  0  0  0  0  0  0
    3.4208   24.9354   16.6254 C   0  0  0  0  0  0  0  0  0  0  0  0
    3.5448   26.3486   12.4679 C   0  0  0  0  0  0  0  0  0  0  0  0
    3.5981   26.4673   14.9588 C   0  0  2  0  0  0  0  0  0  0  0  0
    3.6061   26.9496   11.2438 C   0  0  0  0  0  0  0  0  0  0  0  0
    4.0198   27.0445   13.6753 C   0  0  0  0  0  0  0  0  0  0  0  0
    4.3461   25.4746   15.6283 C   0  0  0  0  0  0  0  0  0  0  0  0
    3.6378   24.1459   17.5931 O   0  0  0  0  0  0  0  0  0  0  0  0
    2.1733   25.5400   16.4112 N   0  0  0  0  0  0  0  0  0  0  0  0
    2.0643   24.3314    8.7279 Cl  0  0  0  0  0  0  0  0  0  0  0  0
  1  8  1  0
  1 13  1  0
  2  3  2  0
  2  4  1  0
  3  5  1  0
  3 14  1  0
  4  7  1  0
  5  9  1  0
  6 11  1  0
  6 12  2  0
  6 13  1  0
  7  9  2  0
  7 10  1  0
  8 10  1  6
  8 11  1  0
M  END
$$$$

     RDKit          3D

 26 28  0  0  0  0  0  0  0  0999 V2000
    1.6691   25.9047   15.1638 C   0  0  0  0  0  0  0  0  0  0  0  0
    2.6592   24.5693   10.4164 C   0  0  0  0  0  0  0  0  0  0  0  0
    2.5375   24.7875   14.7270 C   0  0  0  0  0  0  0  0  0  0  0  0
    3.3028   25.1708   12.4568 C   0  0  0  0  0  0  0  0  0  0  0  0
    3.3793   25.7978   10.2777 C   0  0  1  0  0  0  0  0  0  0  0  0
    3.6780   26.1847   11.5511 C   0  0  0  0  0  0  0  0  0  0  0  0
    3.8623   26.5882    9.2009 C   0  0  0  0  0  0  0  0  0  0  0  0
    4.2533   27.8765    9.6332 C   0  0  0  0  0  0  0  0  0  0  0  0
    4.9446   25.3630   14.2340 C   0  0  0  0  0  0  0  0  0  0  0  0
    5.1138   28.7628    8.7831 C   0  0  0  0  0  0  0  0  0  0  0  0
    5.5167   26.6252   14.3566 C   0  0  0  0  0  0  0  0  0  0  0  0
    5.7401   24.2091   14.4873 C   0  0  0  0  0  0  0  0  0  0  0  0
    6.4719   29.7700    7.1806 C   0  0  0  0  0  0  0  0  0  0  0  0
    6.8641   26.7554   14.6773 C   0  0  0  0  0  0  0  0  0  0  0  0
    6.7075   30.3345    8.4766 C   0  0  0  0  0  0  0  0  0  0  0  0
    7.0867   24.3563   14.7910 C   0  0  0  0  0  0  0  0  0  0  0  0
    7.6363   25.6076   14.8841 C   0  0  0  0  0  0  0  0  0  0  0  0
    4.2632   22.5025   15.2542 O   0  0  0  0  0  0  0  0  0  0  0  0
    5.1242   22.3262   13.3064 O   0  0  0  0  0  0  0  0  0  0  0  0
    2.0546   23.8700    9.4084 N   0  0  0  0  0  0  0  0  0  0  0  0
    2.6399   24.2422   11.7073 N   0  0  0  0  0  0  0  0  0  0  0  0
    3.6175   25.1843   13.8318 N   0  0  0  0  0  0  0  0  0  0  0  0
    5.0793   22.9096   14.3622 N   0  0  0  0  0  0  0  0  0  0  0  0
    5.3292   28.7159    7.4905 N   0  0  0  0  0  0  0  0  0  0  0  0
    5.9278   29.6511    9.3565 N   0  0  0  0  0  0  0  0  0  0  0  0
    7.3570   27.9490   14.8776 F   0  0  0  0  0  0  0  0  0  0  0  0
  1  3  1  0
  2  5  1  0
  2 20  2  0
  2 21  1  0
  3 22  1  0
  4  6  1  0
  4 21  2  0
  4 22  1  0
  5  6  1  0
  5  7  1  6
  7  8  1  0
  8 10  1  0
  9 11  2  0
  9 12  1  0
  9 22  1  0
 10 24  2  0
 10 25  1  0
 11 14  1  0
 12 16  2  0
 12 23  1  0
 13 15  1  0
 13 24  1  0
 14 17  2  0
 14 26  1  0
 15 25  1  0
 16 17  1  0
 18 23  1  0
 19 23  1  0
M  END
$$$$

     RDKit          3D

 11 12  0  0  0  0  0  0  0  0999 V2000
    2.4912   24.4148   10.5580 C   0  0  0  0  0  0  0  0  0  0  0  0
    2.6180   24.4913   11.9123 C   0  0  0  0  0  0  0  0  0  0  0  0
    2.8002   25.5317    9.7724 C   0  0  0  0  0  0  0  0  0  0  0  0
    3.1127   25.7228   12.5207 C   0  0  0  0  0  0  0  0  0  0  0  0
    3.0566   26.9561   14.6865 C   0  0  0  0  0  0  0  0  0  0  0  0
    3.3983   26.6565   10.3574 C   0  0  0  0  0  0  0  0  0  0  0  0
    3.4653   24.7125   14.6580 C   0  0  0  0  0  0  0  0  0  0  0  0
    3.6185   25.1519   16.0190 C   0  0  0  0  0  0  0  0  0  0  0  0
    3.4241   26.5782   16.0584 C   0  0  0  0  0  0  0  0  0  0  0  0
    3.5482   26.7278   11.6855 C   0  0  0  0  0  0  0  0  0  0  0  0
    3.2138   25.8181   13.9015 N   0  0  0  0  0  0  0  0  0  0  0  0
  1  2  2  0
  1  3  1  0
  2  4  1  0
  3  6  1  0
  4 10  1  0
  4 11  1  0
  5  9  1  0
  5 11  1  0
  6 10  2  0
  7  8  1  0
  7 11  1  0
  8  9  1  0
M  END
$$$$
