
     RDKit          3D

 29 31  0  0  0  0  0  0  0  0999 V2000
   21.3954   16.0229   41.4757 C   0  0  0  0  0  0  0  0  0  0  0  0
   21.7170   16.2283   40.1664 C   0  0  0  0  0  0  0  0  0  0  0  0
   22.2306   20.6784   29.9066 C   0  0  0  0  0  0  0  0  0  0  0  0
   22.2276   21.0073   28.4806 C   0  0  0  0  0  0  0  0  0  0  0  0
   22.6770   17.1804   39.7926 C   0  0  0  0  0  0  0  0  0  0  0  0
   22.8573   17.4039   38.3170 C   0  0  0  0  0  0  0  0  0  0  0  0
   22.7598   19.3356   35.7946 C   0  0  0  0  0  0  0  0  0  0  0  0
   22.9092   19.6187   34.4500 C   0  0  0  0  0  0  0  0  0  0  0  0
   23.0210   17.6414   42.0594 C   0  0  0  0  0  0  0  0  0  0  0  0
   23.3388   17.8679   40.7603 C   0  0  0  0  0  0  0  0  0  0  0  0
   23.2081   20.0133   31.6488 C   0  0  0  0  0  0  0  0  0  0  0  0
   23.8099   18.8401   36.5389 C   0  0  0  0  0  0  0  0  0  0  0  0
   24.1623   19.4254   33.8251 C   0  0  0  0  0  0  0  0  0  0  0  0
   24.2624   19.5977   32.4406 C   0  0  0  0  0  0  0  0  0  0  0  0
   25.0632   18.7095   35.9334 C   0  0  0  0  0  0  0  0  0  0  0  0
   25.2479   19.0233   34.5925 C   0  0  0  0  0  0  0  0  0  0  0  0
   25.4681   19.3749   31.6847 C   0  0  0  0  0  0  0  0  0  0  0  0
   25.7809   18.0868   31.2442 C   0  0  0  0  0  0  0  0  0  0  0  0
   26.2273   20.4424   31.2492 C   0  0  0  0  0  0  0  0  0  0  0  0
   26.9592   17.8546   30.5560 C   0  0  0  0  0  0  0  0  0  0  0  0
   27.3825   20.2051   30.5428 C   0  0  0  0  0  0  0  0  0  0  0  0
   27.7131   18.9282   30.1792 C   0  0  0  0  0  0  0  0  0  0  0  0
   21.7328   20.0794   27.7417 O   0  0  0  0  0  0  0  0  0  0  0  0
   23.0316   21.9184   28.0387 O   0  0  0  0  0  0  0  0  0  0  0  0
   21.2565   20.4387   30.7958 N   0  0  0  0  0  0  0  0  0  0  0  0
   21.9274   20.0085   31.9075 N   0  0  0  0  0  0  0  0  0  0  0  0
   23.4384   20.4334   30.4060 N   0  0  0  0  0  0  0  0  0  0  0  0
   23.6573   18.4526   37.9090 N   0  0  0  0  0  0  0  0  0  0  0  0
   29.2052   18.5809   29.3633 Cl  0  0  0  0  0  0  0  0  0  0  0  0
  1  2  1  0
  2  5  2  3
  3  4  1  0
  3 25  2  0
  3 27  1  0
  4 23  2  0
  4 24  1  0
  5  6  1  0
  5 10  1  0
  6 28  2  3
  7  8  2  0
  7 12  1  0
  8 13  1  0
  9 10  2  0
 11 14  1  0
 11 26  2  0
 11 27  1  0
 12 15  2  0
 12 28  1  0
 13 14  1  0
 13 16  2  0
 14 17  1  0
 15 16  1  0
 17 18  2  0
 17 19  1  0
 18 20  1  0
 19 21  2  0
 20 22  2  0
 21 22  1  0
 22 29  1  0
 25 26  1  0
M  END
$$$$

     RDKit          3D

 20 22  0  0  0  0  0  0  0  0999 V2000
   21.5833   21.3271   30.1383 C   0  0  0  0  0  0  0  0  0  0  0  0
   22.5705   19.4492   36.4812 C   0  0  0  0  0  0  0  0  0  0  0  0
   22.4801   19.6860   35.1215 C   0  0  0  0  0  0  0  0  0  0  0  0
   22.5702   20.4263   30.7880 C   0  0  0  0  0  0  0  0  0  0  0  0
   22.4888   20.2309   32.1943 C   0  0  0  0  0  0  0  0  0  0  0  0
   23.3143   17.2234   38.7354 C   0  0  0  0  0  0  0  0  0  0  0  0
   23.4364   19.3863   32.8228 C   0  0  0  0  0  0  0  0  0  0  0  0
   23.6152   18.7008   37.0157 C   0  0  0  0  0  0  0  0  0  0  0  0
   23.4719   19.1847   34.2574 C   0  0  0  0  0  0  0  0  0  0  0  0
   23.5165   19.7415   29.9858 C   0  0  0  0  0  0  0  0  0  0  0  0
   24.4076   16.2609   38.7003 C   0  0  0  0  0  0  0  0  0  0  0  0
   24.4239   18.8989   30.6312 C   0  0  0  0  0  0  0  0  0  0  0  0
   24.3765   18.7079   32.0187 C   0  0  0  0  0  0  0  0  0  0  0  0
   24.4978   18.4116   34.8076 C   0  0  0  0  0  0  0  0  0  0  0  0
   24.5640   18.1817   36.1858 C   0  0  0  0  0  0  0  0  0  0  0  0
   25.3631   17.9457   32.6291 C   0  0  0  0  0  0  0  0  0  0  0  0
   25.4693   17.7939   33.9708 C   0  0  0  0  0  0  0  0  0  0  0  0
   22.1168   16.8554   38.8398 O   0  0  0  0  0  0  0  0  0  0  0  0
   23.5924   18.5287   38.4428 O   0  0  0  0  0  0  0  0  0  0  0  0
   23.6302   19.9426   28.5909 O   0  0  0  0  0  0  0  0  0  0  0  0
  1  4  1  0
  2  3  2  0
  2  8  1  0
  3  9  1  0
  4  5  2  0
  4 10  1  0
  5  7  1  0
  6 11  1  0
  6 18  2  0
  6 19  1  0
  7  9  2  0
  7 13  1  0
  8 15  2  0
  8 19  1  0
  9 14  1  0
 10 12  2  0
 10 20  1  0
 12 13  1  0
 13 16  2  0
 14 15  1  0
 14 17  2  0
 16 17  1  0
M  END
$$$$

     RDKit          3D

 46 53  0  0  0  0  0  0  0  0999 V2000
   21.5455   15.7743   39.9936 C   0  0  0  0  0  0  0  0  0  0  0  0
   21.6847   18.2998   29.8813 C   0  0  0  0  0  0  0  0  0  0  0  0
   21.7896   16.1813   41.2921 C   0  0  0  0  0  0  0  0  0  0  0  0
   22.1255   16.4011   38.9224 C   0  0  0  0  0  0  0  0  0  0  0  0
   22.0694   18.9234   31.0522 C   0  0  0  0  0  0  0  0  0  0  0  0
   21.9880   24.0707   31.2474 C   0  0  0  0  0  0  0  0  0  0  0  0
   22.2013   26.2962   32.3388 C   0  0  0  0  0  0  0  0  0  0  0  0
   22.2408   18.6507   28.6238 C   0  0  0  0  0  0  0  0  0  0  0  0
   22.2776   22.6785   31.2144 C   0  0  0  0  0  0  0  0  0  0  0  0
   22.4363   24.8427   32.3284 C   0  0  0  0  0  0  0  0  0  0  0  0
   22.6531   17.2552   41.5029 C   0  0  0  0  0  0  0  0  0  0  0  0
   22.9790   17.4567   39.1188 C   0  0  0  0  0  0  0  0  0  0  0  0
   23.2097   17.9010   40.4024 C   0  0  0  0  0  0  0  0  0  0  0  0
   23.0649   19.9059   31.0369 C   0  0  0  0  0  0  0  0  0  0  0  0
   23.0134   22.0975   32.2500 C   0  0  0  0  0  0  0  0  0  0  0  0
   23.1053   24.2223   33.3400 C   0  0  0  0  0  0  0  0  0  0  0  0
   23.2841   19.5933   28.6090 C   0  0  0  0  0  0  0  0  0  0  0  0
   23.4042   22.8930   33.3097 C   0  0  0  0  0  0  0  0  0  0  0  0
   23.5086   18.0948   37.9264 C   0  0  0  0  0  0  0  0  0  0  0  0
   23.5452   19.9990   33.5764 C   0  0  0  0  0  0  0  0  0  0  0  0
   23.6702   20.2165   29.7981 C   0  0  0  0  0  0  0  0  0  0  0  0
   23.6253   20.6854   32.2079 C   0  0  1  0  0  0  0  0  0  0  0  0
   24.3345   19.4258   35.5057 C   0  0  0  0  0  0  0  0  0  0  0  0
   24.9209   18.3413   37.6873 C   0  0  0  0  0  0  0  0  0  0  0  0
   25.4507   16.9121   33.3192 C   0  0  0  0  0  0  0  0  0  0  0  0
   25.3018   18.9685   36.4849 C   0  0  0  0  0  0  0  0  0  0  0  0
   25.5825   15.7850   32.4655 C   0  0  0  0  0  0  0  0  0  0  0  0
   25.9212   17.9262   38.5946 C   0  0  0  0  0  0  0  0  0  0  0  0
   25.8682   18.1540   32.8982 C   0  0  0  0  0  0  0  0  0  0  0  0
   26.1016   15.9885   31.1669 C   0  0  0  0  0  0  0  0  0  0  0  0
   25.9663   19.4617   33.6659 C   0  0  2  0  0  0  0  0  0  0  0  0
   26.4112   17.2555   30.7321 C   0  0  0  0  0  0  0  0  0  0  0  0
   26.2425   18.3196   31.6160 C   0  0  0  0  0  0  0  0  0  0  0  0
   26.6361   19.1362   36.1582 C   0  0  0  0  0  0  0  0  0  0  0  0
   26.5669   19.6949   31.3487 C   0  0  0  0  0  0  0  0  0  0  0  0
   27.0187   19.5903   34.7881 C   0  0  0  0  0  0  0  0  0  0  0  0
   27.2400   18.1839   38.3055 C   0  0  0  0  0  0  0  0  0  0  0  0
   27.6081   18.8062   37.1269 C   0  0  0  0  0  0  0  0  0  0  0  0
   20.9461   16.7555   27.8097 O   0  0  0  0  0  0  0  0  0  0  0  0
   21.1279   26.7544   32.7385 O   0  0  0  0  0  0  0  0  0  0  0  0
   21.8280   18.1539   27.4785 O   0  0  0  0  0  0  0  0  0  0  0  0
   23.1315   27.0168   31.9382 O   0  0  0  0  0  0  0  0  0  0  0  0
   22.5342   19.9146   34.4056 N   0  0  0  0  0  0  0  0  0  0  0  0
   23.0242   19.6146   35.6545 N   0  0  0  0  0  0  0  0  0  0  0  0
   24.6843   19.7371   34.2613 N   0  0  0  0  0  0  0  0  0  0  0  0
   26.2725   20.3966   32.6126 N   0  0  0  0  0  0  0  0  0  0  0  0
  1  3  2  0
  1  4  1  0
  2  5  2  0
  2  8  1  0
  3 11  1  0
  4 12  2  0
  5 14  1  0
  6  9  2  0
  6 10  1  0
  7 10  1  0
  7 40  2  0
  7 42  1  0
  8 17  2  0
  8 41  1  0
  9 15  1  0
 10 16  2  0
 11 13  2  0
 12 13  1  0
 12 19  1  0
 14 21  2  0
 22 14  1  6
 15 18  2  0
 15 22  1  0
 16 18  1  0
 17 21  1  0
 19 24  1  0
 20 22  1  0
 20 43  2  0
 20 45  1  0
 23 26  1  0
 23 44  2  0
 23 45  1  0
 24 26  1  0
 24 28  2  0
 25 27  2  0
 25 29  1  0
 26 34  2  0
 27 30  1  0
 28 37  1  0
 29 31  1  0
 29 33  2  0
 30 32  2  0
 31 36  1  1
 31 45  1  0
 31 46  1  0
 32 33  1  0
 33 35  1  0
 34 36  1  0
 34 38  1  0
 35 46  1  0
 37 38  2  0
 39 41  1  0
 43 44  1  0
M  END
$$$$

     RDKit          3D

 36 39  0  0  0  0  0  0  0  0999 V2000
   20.9529   16.9508   27.8089 C   0  0  0  0  0  0  0  0  0  0  0  0
   21.4575   19.7681   30.0124 C   0  0  0  0  0  0  0  0  0  0  0  0
   21.7062   15.8310   39.8441 C   0  0  0  0  0  0  0  0  0  0  0  0
   21.6266   17.7002   28.8303 C   0  0  0  0  0  0  0  0  0  0  0  0
   21.8273   19.7911   31.4017 C   0  0  0  0  0  0  0  0  0  0  0  0
   21.8682   20.0116   36.8725 C   0  0  0  0  0  0  0  0  0  0  0  0
   21.7657   20.8727   29.2028 C   0  0  0  0  0  0  0  0  0  0  0  0
   22.4411   21.9744   29.7265 C   0  0  0  0  0  0  0  0  0  0  0  0
   22.4685   18.0619   38.3222 C   0  0  0  0  0  0  0  0  0  0  0  0
   22.5093   20.2175   34.4719 C   0  0  0  0  0  0  0  0  0  0  0  0
   22.4690   20.9144   31.9433 C   0  0  0  0  0  0  0  0  0  0  0  0
   22.8833   19.0827   37.4595 C   0  0  0  0  0  0  0  0  0  0  0  0
   22.7509   21.9928   31.0951 C   0  0  0  0  0  0  0  0  0  0  0  0
   23.0471   21.0188   33.3579 C   0  0  2  0  0  0  0  0  0  0  0  0
   23.4368   17.1858   38.8925 C   0  0  0  0  0  0  0  0  0  0  0  0
   24.7841   17.4024   38.5869 C   0  0  0  0  0  0  0  0  0  0  0  0
   24.9672   17.4160   33.4081 C   0  0  0  0  0  0  0  0  0  0  0  0
   25.1448   18.4180   37.6894 C   0  0  0  0  0  0  0  0  0  0  0  0
   25.4274   19.9128   32.8285 C   0  0  0  0  0  0  0  0  0  0  0  0
   25.6115   16.9659   31.9481 C   0  0  0  0  0  0  0  0  0  0  0  0
   25.8414   18.7398   33.6745 C   0  0  1  0  0  0  0  0  0  0  0  0
   26.5712   18.6439   37.2578 C   0  0  0  0  0  0  0  0  0  0  0  0
   26.8507   18.9857   35.9005 C   0  0  0  0  0  0  0  0  0  0  0  0
   27.6289   18.4918   38.1741 C   0  0  0  0  0  0  0  0  0  0  0  0
   28.1839   19.1471   35.5090 C   0  0  0  0  0  0  0  0  0  0  0  0
   28.9709   18.6609   37.7625 C   0  0  0  0  0  0  0  0  0  0  0  0
   29.2293   18.9509   36.4085 C   0  0  0  0  0  0  0  0  0  0  0  0
   30.6588   18.9880   35.8818 C   0  0  0  0  0  0  0  0  0  0  0  0
   20.7890   18.7121   29.3928 O   0  0  0  0  0  0  0  0  0  0  0  0
   22.2759   19.0534   34.3422 O   0  0  0  0  0  0  0  0  0  0  0  0
   23.0504   16.1254   39.6857 O   0  0  0  0  0  0  0  0  0  0  0  0
   25.8213   19.1690   35.0006 O   0  0  0  0  0  0  0  0  0  0  0  0
   26.1915   20.1809   31.8900 O   0  0  0  0  0  0  0  0  0  0  0  0
   22.3748   20.7677   35.7184 N   0  0  0  0  0  0  0  0  0  0  0  0
   24.1908   19.2143   37.1637 N   0  0  0  0  0  0  0  0  0  0  0  0
   24.4950   20.8292   33.2803 N   0  0  0  0  0  0  0  0  0  0  0  0
  1  4  1  0
  2  5  2  0
  2  7  1  0
  2 29  1  0
  3 31  1  0
  4 29  1  0
  5 11  1  0
  6 12  1  0
  6 34  1  0
  7  8  2  0
  8 13  1  0
  9 12  2  0
  9 15  1  0
 10 14  1  0
 10 30  2  0
 10 34  1  0
 11 13  2  0
 14 11  1  6
 12 35  1  0
 14 36  1  0
 15 16  2  0
 15 31  1  0
 16 18  1  0
 17 20  1  0
 21 17  1  1
 18 22  1  0
 18 35  2  0
 19 21  1  0
 19 33  2  0
 19 36  1  0
 21 32  1  0
 22 23  2  0
 22 24  1  0
 23 25  1  0
 23 32  1  0
 24 26  2  0
 25 27  2  0
 26 27  1  0
 27 28  1  0
M  END
$$$$

     RDKit          3D

 37 42  0  0  0  0  0  0  0  0999 V2000
   21.8408   18.7993   37.7215 C   0  0  0  0  0  0  0  0  0  0  0  0
   21.9579   23.9450   30.9324 C   0  0  0  0  0  0  0  0  0  0  0  0
   22.1741   22.6191   30.4959 C   0  0  0  0  0  0  0  0  0  0  0  0
   22.1651   24.2803   32.2720 C   0  0  0  0  0  0  0  0  0  0  0  0
   22.3848   17.8956   30.1109 C   0  0  0  0  0  0  0  0  0  0  0  0
   22.6177   21.6453   31.4141 C   0  0  0  0  0  0  0  0  0  0  0  0
   22.6787   21.9478   32.8099 C   0  0  0  0  0  0  0  0  0  0  0  0
   22.5439   23.3004   33.2145 C   0  0  0  0  0  0  0  0  0  0  0  0
   22.8661   20.9126   33.8445 C   0  0  0  0  0  0  0  0  0  0  0  0
   22.7616   23.6286   34.6063 C   0  0  0  0  0  0  0  0  0  0  0  0
   23.0221   16.8590   38.6720 C   0  0  0  0  0  0  0  0  0  0  0  0
   23.0359   18.1048   38.0099 C   0  0  0  0  0  0  0  0  0  0  0  0
   22.9976   20.2910   36.3738 C   0  0  0  0  0  0  0  0  0  0  0  0
   22.9812   21.2942   35.2422 C   0  0  0  0  0  0  0  0  0  0  0  0
   22.9866   22.6590   35.5582 C   0  0  0  0  0  0  0  0  0  0  0  0
   24.2219   16.1836   38.9317 C   0  0  0  0  0  0  0  0  0  0  0  0
   24.2485   18.6826   37.5852 C   0  0  0  0  0  0  0  0  0  0  0  0
   24.9511   16.8068   33.7404 C   0  0  0  0  0  0  0  0  0  0  0  0
   25.1319   17.5400   32.6062 C   0  0  0  0  0  0  0  0  0  0  0  0
   25.4312   16.7737   38.5528 C   0  0  0  0  0  0  0  0  0  0  0  0
   25.5271   17.2373   34.9296 C   0  0  0  0  0  0  0  0  0  0  0  0
   25.4696   18.0203   37.9048 C   0  0  1  0  0  0  0  0  0  0  0  0
   25.7018   18.8055   32.6820 C   0  0  0  0  0  0  0  0  0  0  0  0
   26.2585   18.4352   35.0056 C   0  0  0  0  0  0  0  0  0  0  0  0
   26.2640   19.2581   33.8690 C   0  0  0  0  0  0  0  0  0  0  0  0
   26.8069   18.5198   37.5217 C   0  0  0  0  0  0  0  0  0  0  0  0
   27.1388   18.7077   36.1521 C   0  0  0  0  0  0  0  0  0  0  0  0
   27.8042   18.6576   38.4898 C   0  0  0  0  0  0  0  0  0  0  0  0
   28.4662   19.0878   35.8145 C   0  0  0  0  0  0  0  0  0  0  0  0
   29.1022   18.9417   38.1680 C   0  0  0  0  0  0  0  0  0  0  0  0
   29.4304   19.1914   36.8234 C   0  0  0  0  0  0  0  0  0  0  0  0
   20.6500   19.7669   30.5659 O   0  0  0  0  0  0  0  0  0  0  0  0
   21.8831   19.8618   36.9072 N   0  0  0  0  0  0  0  0  0  0  0  0
   22.1281   20.0782   28.6273 N   0  0  0  0  0  0  0  0  0  0  0  0
   22.9763   20.3427   30.9803 N   0  0  0  0  0  0  0  0  0  0  0  0
   24.2020   19.8364   36.8466 N   0  0  0  0  0  0  0  0  0  0  0  0
   21.9779   19.5063   30.0845 S   0  0  2  0  0  0  0  0  0  0  0  0
  1 12  2  0
  1 33  1  0
  2  3  2  0
  2  4  1  0
  3  6  1  0
  4  8  2  0
 37  5  1  6
  6  7  2  0
  6 35  1  0
  7  8  1  0
  7  9  1  0
  8 10  1  0
  9 14  2  0
 10 15  2  0
 11 12  1  0
 11 16  1  0
 12 17  1  0
 13 14  1  0
 13 33  2  0
 13 36  1  0
 14 15  1  0
 16 20  2  0
 17 22  1  0
 17 36  2  0
 18 19  2  0
 18 21  1  0
 19 23  1  0
 20 22  1  0
 21 24  2  0
 22 26  1  6
 23 25  2  0
 24 25  1  0
 24 27  1  0
 26 27  1  0
 26 28  2  0
 27 29  2  0
 28 30  1  0
 29 31  1  0
 30 31  2  0
 32 37  1  0
 34 37  1  0
 35 37  1  0
M  END
$$$$

     RDKit          3D

 38 42  0  0  0  0  0  0  0  0999 V2000
   20.9316   17.7883   29.7062 C   0  0  0  0  0  0  0  0  0  0  0  0
   21.2397   19.2077   30.1070 C   0  0  0  0  0  0  0  0  0  0  0  0
   22.2936   16.0126   39.7142 C   0  0  0  0  0  0  0  0  0  0  0  0
   22.5581   16.8508   40.7738 C   0  0  0  0  0  0  0  0  0  0  0  0
   22.8468   20.2794   33.7054 C   0  0  0  0  0  0  0  0  0  0  0  0
   22.9407   20.7661   35.0099 C   0  0  0  0  0  0  0  0  0  0  0  0
   23.1156   16.0529   38.6020 C   0  0  0  0  0  0  0  0  0  0  0  0
   23.0615   19.9293   36.3096 C   0  0  2  0  0  0  0  0  0  0  0  0
   23.0347   20.5823   31.1906 C   0  0  1  0  0  0  0  0  0  0  0  0
   23.0135   21.0986   32.5849 C   0  0  0  0  0  0  0  0  0  0  0  0
   23.0196   22.1591   35.1923 C   0  0  0  0  0  0  0  0  0  0  0  0
   23.1795   22.4445   32.7841 C   0  0  0  0  0  0  0  0  0  0  0  0
   23.1708   23.0064   34.0733 C   0  0  0  0  0  0  0  0  0  0  0  0
   23.6536   17.7315   40.7234 C   0  0  0  0  0  0  0  0  0  0  0  0
   24.1396   16.9766   38.5015 C   0  0  0  0  0  0  0  0  0  0  0  0
   24.4425   17.8205   39.5905 C   0  0  0  0  0  0  0  0  0  0  0  0
   24.3379   20.7037   30.3707 C   0  0  0  0  0  0  0  0  0  0  0  0
   24.6418   17.9292   36.2801 C   0  0  1  0  0  0  0  0  0  0  0  0
   24.8093   16.2454   34.3762 C   0  0  0  0  0  0  0  0  0  0  0  0
   25.1038   15.9598   33.0152 C   0  0  0  0  0  0  0  0  0  0  0  0
   25.0342   17.5110   34.9036 C   0  0  0  0  0  0  0  0  0  0  0  0
   25.0785   19.4329   29.8583 C   0  0  0  0  0  0  0  0  0  0  0  0
   25.6077   16.9694   32.1834 C   0  0  0  0  0  0  0  0  0  0  0  0
   25.6350   18.5080   34.0805 C   0  0  0  0  0  0  0  0  0  0  0  0
   25.8535   18.2281   32.7118 C   0  0  0  0  0  0  0  0  0  0  0  0
   26.0235   19.7502   34.6276 C   0  0  0  0  0  0  0  0  0  0  0  0
   26.3313   19.2701   31.9226 C   0  0  0  0  0  0  0  0  0  0  0  0
   26.6823   20.5020   32.4688 C   0  0  0  0  0  0  0  0  0  0  0  0
   26.5656   20.7024   33.8081 C   0  0  0  0  0  0  0  0  0  0  0  0
   27.5790   19.1350   29.8705 C   0  0  0  0  0  0  0  0  0  0  0  0
   20.5362   20.1284   29.7354 O   0  0  0  0  0  0  0  0  0  0  0  0
   23.3462   18.5054   36.2256 O   0  0  0  0  0  0  0  0  0  0  0  0
   24.8715   16.9159   37.2728 O   0  0  0  0  0  0  0  0  0  0  0  0
   21.8115   20.1022   37.0480 N   0  0  0  0  0  0  0  0  0  0  0  0
   22.3274   19.4040   30.9268 N   0  0  0  0  0  0  0  0  0  0  0  0
   26.3638   19.1427   30.5390 N   0  0  0  0  0  0  0  0  0  0  0  0
   21.3496   16.6699   42.0622 Cl  0  0  0  0  0  0  0  0  0  0  0  0
   23.3798   24.6793   34.2801 Cl  0  0  0  0  0  0  0  0  0  0  0  0
  1  2  1  0
  2 31  2  0
  2 35  1  0
  3  4  2  0
  3  7  1  0
  4 14  1  0
  4 37  1  0
  5  6  2  0
  5 10  1  0
  6  8  1  0
  6 11  1  0
  7 15  2  0
  8 32  1  0
  8 34  1  6
  9 10  1  0
  9 17  1  0
  9 35  1  1
 10 12  2  0
 11 13  2  0
 12 13  1  0
 13 38  1  0
 14 16  2  0
 15 16  1  0
 15 33  1  0
 17 22  1  0
 18 21  1  0
 18 32  1  0
 18 33  1  1
 19 20  1  0
 19 21  2  0
 20 23  2  0
 21 24  1  0
 22 36  1  0
 23 25  1  0
 24 25  2  0
 24 26  1  0
 25 27  1  0
 26 29  2  0
 27 28  2  0
 27 36  1  0
 28 29  1  0
 30 36  1  0
M  END
$$$$

     RDKit          3D

 39 43  0  0  0  0  0  0  0  0999 V2000
   21.5232   17.1926   41.9339 C   0  0  0  0  0  0  0  0  0  0  0  0
   22.0766   16.2282   39.6780 C   0  0  0  0  0  0  0  0  0  0  0  0
   22.1929   18.7236   29.7913 C   0  0  0  0  0  0  0  0  0  0  0  0
   22.1999   23.5584   30.1347 C   0  0  0  0  0  0  0  0  0  0  0  0
   22.4156   17.0890   40.7211 C   0  0  0  0  0  0  0  0  0  0  0  0
   22.3213   22.2187   30.5921 C   0  0  0  0  0  0  0  0  0  0  0  0
   22.4746   19.3612   32.6495 C   0  0  0  0  0  0  0  0  0  0  0  0
   22.6916   23.9267   28.8761 C   0  0  0  0  0  0  0  0  0  0  0  0
   22.8426   16.1855   38.5269 C   0  0  0  0  0  0  0  0  0  0  0  0
   22.8123   19.5531   33.9810 C   0  0  0  0  0  0  0  0  0  0  0  0
   22.8534   21.2441   29.7672 C   0  0  0  0  0  0  0  0  0  0  0  0
   23.1968   19.8159   30.1812 C   0  0  1  0  0  0  0  0  0  0  0  0
   23.2358   21.6639   28.4695 C   0  0  0  0  0  0  0  0  0  0  0  0
   23.5962   17.8043   40.6383 C   0  0  0  0  0  0  0  0  0  0  0  0
   23.4950   19.6226   31.6940 C   0  0  0  0  0  0  0  0  0  0  0  0
   23.9944   16.9666   38.4463 C   0  0  0  0  0  0  0  0  0  0  0  0
   24.3776   17.7584   39.4887 C   0  0  0  0  0  0  0  0  0  0  0  0
   24.5464   20.3482   35.6286 C   0  0  0  0  0  0  0  0  0  0  0  0
   24.8284   16.9550   37.1859 C   0  0  0  0  0  0  0  0  0  0  0  0
   25.1598   19.3568   36.5601 C   0  0  2  0  0  0  0  0  0  0  0  0
   25.1061   19.6384   33.4395 C   0  0  0  0  0  0  0  0  0  0  0  0
   25.9612   19.5170   31.2733 C   0  0  0  0  0  0  0  0  0  0  0  0
   26.4448   18.2284   31.0351 C   0  0  0  0  0  0  0  0  0  0  0  0
   26.6671   19.3361   36.5762 C   0  0  0  0  0  0  0  0  0  0  0  0
   26.5463   20.6251   30.6644 C   0  0  0  0  0  0  0  0  0  0  0  0
   27.2478   19.0914   37.8092 C   0  0  0  0  0  0  0  0  0  0  0  0
   27.4459   19.5169   35.4592 C   0  0  0  0  0  0  0  0  0  0  0  0
   27.4854   18.0498   30.1625 C   0  0  0  0  0  0  0  0  0  0  0  0
   27.6127   20.4299   29.8109 C   0  0  0  0  0  0  0  0  0  0  0  0
   28.0683   19.1371   29.5393 C   0  0  0  0  0  0  0  0  0  0  0  0
   28.6162   18.9382   37.9174 C   0  0  0  0  0  0  0  0  0  0  0  0
   28.7944   19.3802   35.5594 C   0  0  0  0  0  0  0  0  0  0  0  0
   29.4115   19.0439   36.7683 C   0  0  0  0  0  0  0  0  0  0  0  0
   20.9739   18.8116   29.9103 O   0  0  0  0  0  0  0  0  0  0  0  0
   24.6021   18.0342   36.3513 O   0  0  0  0  0  0  0  0  0  0  0  0
   22.6988   25.2699   28.4754 N   0  0  0  0  0  0  0  0  0  0  0  0
   23.1387   22.9477   28.0561 N   0  0  0  0  0  0  0  0  0  0  0  0
   24.1171   19.8156   34.3479 N   0  0  0  0  0  0  0  0  0  0  0  0
   24.8111   19.6696   32.1081 N   0  0  0  0  0  0  0  0  0  0  0  0
  1  5  1  0
  2  5  2  0
  2  9  1  0
  3 12  1  0
  3 34  2  0
  4  6  1  0
  4  8  1  0
  5 14  1  0
  6 11  2  0
  7 10  2  0
  7 15  1  0
  8 36  2  0
  8 37  1  0
  9 16  2  0
 10 38  1  0
 11 12  1  0
 11 13  1  0
 12 15  1  1
 13 37  2  0
 14 17  2  0
 15 39  1  0
 16 17  1  0
 16 19  1  0
 20 18  1  6
 18 38  1  0
 19 35  1  0
 20 24  1  0
 20 35  1  0
 21 38  1  0
 21 39  1  0
 22 23  1  0
 22 25  1  0
 22 39  1  0
 23 28  2  0
 24 26  2  0
 24 27  1  0
 25 29  2  0
 26 31  1  0
 27 32  2  0
 28 30  1  0
 29 30  1  0
 31 33  2  0
 32 33  1  0
M  END
$$$$

     RDKit          3D

 41 47  0  0  0  0  0  0  0  0999 V2000
   21.1821   16.7853   42.2948 C   0  0  0  0  0  0  0  0  0  0  0  0
   21.5542   23.6186   31.4639 C   0  0  0  0  0  0  0  0  0  0  0  0
   21.4926   24.3334   32.6655 C   0  0  0  0  0  0  0  0  0  0  0  0
   21.9096   16.1418   39.9776 C   0  0  0  0  0  0  0  0  0  0  0  0
   22.1067   16.9015   41.1403 C   0  0  0  0  0  0  0  0  0  0  0  0
   22.1492   21.5706   29.5017 C   0  0  0  0  0  0  0  0  0  0  0  0
   22.4335   20.5615   28.6146 C   0  0  0  0  0  0  0  0  0  0  0  0
   22.3657   23.7186   33.5879 C   0  0  0  0  0  0  0  0  0  0  0  0
   22.7546   16.2473   38.8859 C   0  0  0  0  0  0  0  0  0  0  0  0
   22.8054   21.6438   30.7517 C   0  0  0  0  0  0  0  0  0  0  0  0
   22.9769   22.6626   32.9035 C   0  0  0  0  0  0  0  0  0  0  0  0
   23.2178   17.7231   41.1683 C   0  0  0  0  0  0  0  0  0  0  0  0
   23.3787   19.6326   28.9401 C   0  0  0  0  0  0  0  0  0  0  0  0
   23.8711   17.0455   38.9350 C   0  0  0  0  0  0  0  0  0  0  0  0
   23.8432   20.7294   31.0963 C   0  0  0  0  0  0  0  0  0  0  0  0
   24.0840   17.8174   40.1044 C   0  0  0  0  0  0  0  0  0  0  0  0
   24.0738   19.6871   30.1586 C   0  0  0  0  0  0  0  0  0  0  0  0
   24.0095   21.8241   33.3172 C   0  0  0  0  0  0  0  0  0  0  0  0
   24.5253   20.9519   32.3845 C   0  0  0  0  0  0  0  0  0  0  0  0
   24.8258   17.1679   37.7745 C   0  0  0  0  0  0  0  0  0  0  0  0
   25.1883   19.4281   36.7012 C   0  0  2  0  0  0  0  0  0  0  0  0
   25.4509   16.1774   32.9496 C   0  0  0  0  0  0  0  0  0  0  0  0
   25.5361   17.5509   32.9519 C   0  0  0  0  0  0  0  0  0  0  0  0
   25.7288   18.4130   37.7328 C   0  0  0  0  0  0  0  0  0  0  0  0
   25.9365   20.7608   36.4456 C   0  0  0  0  0  0  0  0  0  0  0  0
   25.9591   15.4175   31.9122 C   0  0  0  0  0  0  0  0  0  0  0  0
   26.2107   18.1781   31.8821 C   0  0  0  0  0  0  0  0  0  0  0  0
   26.4058   19.5698   31.8545 C   0  0  0  0  0  0  0  0  0  0  0  0
   26.3132   20.4892   34.0234 C   0  0  0  0  0  0  0  0  0  0  0  0
   26.6010   16.0078   30.8699 C   0  0  0  0  0  0  0  0  0  0  0  0
   26.7756   17.4005   30.8330 C   0  0  0  0  0  0  0  0  0  0  0  0
   27.1826   20.1771   30.8695 C   0  0  0  0  0  0  0  0  0  0  0  0
   27.7512   19.3607   29.8889 C   0  0  0  0  0  0  0  0  0  0  0  0
   23.8878   19.7156   37.0741 O   0  0  0  0  0  0  0  0  0  0  0  0
   27.4745   20.1246   34.2034 O   0  0  0  0  0  0  0  0  0  0  0  0
   20.2840   15.8587   42.2525 N   0  0  0  0  0  0  0  0  0  0  0  0
   22.4584   22.5882   31.6625 N   0  0  0  0  0  0  0  0  0  0  0  0
   24.5611   21.8706   34.6469 N   0  0  0  0  0  0  0  0  0  0  0  0
   25.7094   20.3445   32.7649 N   0  0  0  0  0  0  0  0  0  0  0  0
   25.6326   21.0974   35.0016 N   0  0  0  0  0  0  0  0  0  0  0  0
   27.5314   17.9978   29.8590 N   0  0  0  0  0  0  0  0  0  0  0  0
  1  5  1  0
  1 36  2  0
  2  3  1  0
  2 37  1  0
  3  8  1  0
  4  5  2  0
  4  9  1  0
  5 12  1  0
  6  7  1  0
  6 10  2  0
  7 13  2  0
  8 11  1  0
  9 14  2  0
 10 15  1  0
 10 37  1  0
 11 18  2  0
 11 37  1  0
 12 16  2  0
 13 17  1  0
 14 16  1  0
 14 20  1  0
 15 17  1  0
 15 19  2  0
 18 19  1  0
 18 38  1  0
 19 39  1  0
 20 24  1  0
 21 24  1  0
 21 25  1  0
 21 34  1  1
 22 23  2  0
 22 26  1  0
 23 27  1  0
 25 40  1  0
 26 30  2  0
 27 28  2  0
 27 31  1  0
 28 32  1  0
 28 39  1  0
 29 35  2  0
 29 39  1  0
 29 40  1  0
 30 31  1  0
 31 41  2  0
 32 33  2  0
 33 41  1  0
 38 40  1  0
M  END
$$$$

     RDKit          3D

 28 31  0  0  0  0  0  0  0  0999 V2000
   21.5658   16.1473   40.8359 C   0  0  0  0  0  0  0  0  0  0  0  0
   22.0078   16.4103   39.5750 C   0  0  0  0  0  0  0  0  0  0  0  0
   22.1439   16.7232   41.9065 C   0  0  0  0  0  0  0  0  0  0  0  0
   22.3533   18.4599   29.4648 C   0  0  0  0  0  0  0  0  0  0  0  0
   22.2312   19.5768   27.5001 C   0  0  0  0  0  0  0  0  0  0  0  0
   23.0390   17.2917   39.4004 C   0  0  0  0  0  0  0  0  0  0  0  0
   23.0059   19.5252   30.1098 C   0  0  0  0  0  0  0  0  0  0  0  0
   23.0063   20.5895   27.9677 C   0  0  0  0  0  0  0  0  0  0  0  0
   23.2236   17.5584   41.7872 C   0  0  0  0  0  0  0  0  0  0  0  0
   23.2271   19.6481   31.5361 C   0  0  0  0  0  0  0  0  0  0  0  0
   23.3378   19.6181   34.3662 C   0  0  0  0  0  0  0  0  0  0  0  0
   23.3155   19.4295   35.7402 C   0  0  0  0  0  0  0  0  0  0  0  0
   23.3934   20.5876   29.2452 C   0  0  0  0  0  0  0  0  0  0  0  0
   23.6983   17.8234   40.5020 C   0  0  0  0  0  0  0  0  0  0  0  0
   24.3078   18.6657   36.3662 C   0  0  0  0  0  0  0  0  0  0  0  0
   24.3678   19.0241   33.6160 C   0  0  0  0  0  0  0  0  0  0  0  0
   25.3353   18.2596   34.2922 C   0  0  0  0  0  0  0  0  0  0  0  0
   25.6478   17.4230   31.0686 C   0  0  0  0  0  0  0  0  0  0  0  0
   25.5061   18.7492   31.4657 C   0  0  0  0  0  0  0  0  0  0  0  0
   26.5144   19.7026   31.1245 C   0  0  0  0  0  0  0  0  0  0  0  0
   26.7618   17.0229   30.3681 C   0  0  0  0  0  0  0  0  0  0  0  0
   27.6475   19.2907   30.4077 C   0  0  0  0  0  0  0  0  0  0  0  0
   27.7444   17.9494   30.0750 C   0  0  0  0  0  0  0  0  0  0  0  0
   22.0863   18.5690   28.1774 N   0  0  0  0  0  0  0  0  0  0  0  0
   23.3822   17.5829   38.1278 N   0  0  0  0  0  0  0  0  0  0  0  0
   24.2633   18.4804   37.7417 N   0  0  0  0  0  0  0  0  0  0  0  0
   24.3834   19.1903   32.2110 N   0  0  0  0  0  0  0  0  0  0  0  0
   25.2464   18.0920   35.6408 N   0  0  0  0  0  0  0  0  0  0  0  0
  1  2  1  0
  1  3  2  0
  2  6  1  0
  3  9  1  0
  4  7  2  0
  4 24  1  0
  5  8  1  0
  5 24  2  0
  6 14  1  0
  6 25  2  3
  7 10  1  0
  7 13  1  0
  8 13  2  0
  9 14  2  0
 10 27  1  0
 11 12  2  0
 11 16  1  0
 12 15  1  0
 15 26  1  0
 15 28  2  0
 16 17  2  0
 16 27  1  0
 17 28  1  0
 18 19  2  0
 18 21  1  0
 19 20  1  0
 19 27  1  0
 20 22  2  0
 21 23  2  0
 22 23  1  0
 25 26  1  0
M  END
$$$$

     RDKit          3D

 24 26  0  0  0  0  0  0  0  0999 V2000
   21.2649   17.3715   27.7924 C   0  0  0  0  0  0  0  0  0  0  0  0
   21.4838   19.6399   30.3311 C   0  0  0  0  0  0  0  0  0  0  0  0
   21.7605   19.7461   31.7105 C   0  0  0  0  0  0  0  0  0  0  0  0
   22.0716   19.3343   34.6851 C   0  0  0  0  0  0  0  0  0  0  0  0
   22.2218   18.7818   29.4914 C   0  0  0  0  0  0  0  0  0  0  0  0
   22.2815   19.1794   36.0704 C   0  0  0  0  0  0  0  0  0  0  0  0
   22.7890   19.0031   32.2738 C   0  0  0  0  0  0  0  0  0  0  0  0
   23.0989   19.0505   33.7486 C   0  0  0  0  0  0  0  0  0  0  0  0
   23.3904   17.8089   38.9281 C   0  0  0  0  0  0  0  0  0  0  0  0
   23.2648   18.0583   30.0664 C   0  0  0  0  0  0  0  0  0  0  0  0
   23.5647   18.1708   31.4274 C   0  0  0  0  0  0  0  0  0  0  0  0
   23.5363   18.7987   36.5371 C   0  0  0  0  0  0  0  0  0  0  0  0
   24.1027   18.4449   37.8327 C   0  0  2  0  0  0  0  0  0  0  0  0
   24.4075   18.8007   34.2398 C   0  0  0  0  0  0  0  0  0  0  0  0
   24.6307   18.7911   35.6342 C   0  0  0  0  0  0  0  0  0  0  0  0
   25.4601   18.5074   37.7581 C   0  0  0  0  0  0  0  0  0  0  0  0
   25.8612   18.7199   36.4123 C   0  0  2  0  0  0  0  0  0  0  0  0
   27.1968   19.0027   36.0133 C   0  0  0  0  0  0  0  0  0  0  0  0
   28.3550   18.9907   36.8443 C   0  0  0  0  0  0  0  0  0  0  0  0
   28.4641   18.8093   38.2316 C   0  0  0  0  0  0  0  0  0  0  0  0
   29.6902   19.0393   36.2096 C   0  0  0  0  0  0  0  0  0  0  0  0
   22.2828   17.3496   38.7096 O   0  0  0  0  0  0  0  0  0  0  0  0
   21.9474   18.6489   28.0922 N   0  0  0  0  0  0  0  0  0  0  0  0
   24.0342   17.8516   40.0914 N   0  0  0  0  0  0  0  0  0  0  0  0
  1 23  1  0
  2  3  1  0
  2  5  1  0
  3  7  2  0
  4  6  2  0
  4  8  1  0
  5 10  2  0
  5 23  1  0
  6 12  1  0
  7  8  1  0
  7 11  1  0
  8 14  2  0
 13  9  1  6
  9 22  2  0
  9 24  1  0
 10 11  1  0
 12 13  1  0
 12 15  2  0
 13 16  1  0
 14 15  1  0
 15 17  1  0
 17 16  1  1
 17 18  1  0
 18 19  2  3
 19 20  1  0
 19 21  1  0
M  END
$$$$

     RDKit          3D

 39 43  0  0  0  0  0  0  0  0999 V2000
   21.6087   15.9250   40.5697 C   0  0  0  0  0  0  0  0  0  0  0  0
   21.7045   23.4091   30.6372 C   0  0  0  0  0  0  0  0  0  0  0  0
   21.7257   19.3341   31.6726 C   0  0  0  0  0  0  0  0  0  0  0  0
   21.8946   22.0894   30.9043 C   0  0  0  0  0  0  0  0  0  0  0  0
   22.1546   15.9007   39.3056 C   0  0  0  0  0  0  0  0  0  0  0  0
   22.1444   16.7244   41.5442 C   0  0  0  0  0  0  0  0  0  0  0  0
   22.0956   18.1470   28.2442 C   0  0  0  0  0  0  0  0  0  0  0  0
   22.1528   24.3780   31.4601 C   0  0  0  0  0  0  0  0  0  0  0  0
   22.2386   18.2874   30.7056 C   0  0  0  0  0  0  0  0  0  0  0  0
   22.6123   21.6800   32.0215 C   0  0  0  0  0  0  0  0  0  0  0  0
   22.7706   18.8044   29.4303 C   0  0  0  0  0  0  0  0  0  0  0  0
   22.8811   20.2168   32.2045 C   0  0  1  0  0  0  0  0  0  0  0  0
   22.8396   24.0496   32.6311 C   0  0  0  0  0  0  0  0  0  0  0  0
   23.1786   17.5774   41.2386 C   0  0  0  0  0  0  0  0  0  0  0  0
   23.0693   22.6833   32.9179 C   0  0  0  0  0  0  0  0  0  0  0  0
   23.2185   16.7355   39.0013 C   0  0  0  0  0  0  0  0  0  0  0  0
   23.2976   25.1821   33.5233 C   0  0  0  0  0  0  0  0  0  0  0  0
   23.7182   16.7869   37.6309 C   0  0  0  0  0  0  0  0  0  0  0  0
   23.7604   17.5441   39.9935 C   0  0  0  0  0  0  0  0  0  0  0  0
   24.2312   19.0584   35.3988 C   0  0  0  0  0  0  0  0  0  0  0  0
   24.2829   19.4432   34.0758 C   0  0  0  0  0  0  0  0  0  0  0  0
   24.9575   17.5080   37.4204 C   0  0  0  0  0  0  0  0  0  0  0  0
   25.2010   16.9913   33.1374 C   0  0  0  0  0  0  0  0  0  0  0  0
   25.2307   18.5453   36.3244 C   0  0  0  0  0  0  0  0  0  0  0  0
   25.4022   19.4674   33.1972 C   0  0  0  0  0  0  0  0  0  0  0  0
   25.5044   15.7435   32.4628 C   0  0  0  0  0  0  0  0  0  0  0  0
   25.6605   18.2183   32.5174 C   0  0  0  0  0  0  0  0  0  0  0  0
   26.2081   15.7904   31.2669 C   0  0  0  0  0  0  0  0  0  0  0  0
   26.0002   17.1944   38.3030 C   0  0  0  0  0  0  0  0  0  0  0  0
   26.3403   18.1760   31.3513 C   0  0  0  0  0  0  0  0  0  0  0  0
   26.6327   16.9729   30.7400 C   0  0  0  0  0  0  0  0  0  0  0  0
   26.4729   19.1341   36.3331 C   0  0  0  0  0  0  0  0  0  0  0  0
   27.2178   17.8051   38.1946 C   0  0  0  0  0  0  0  0  0  0  0  0
   27.4448   18.7847   37.2442 C   0  0  0  0  0  0  0  0  0  0  0  0
   25.8859   20.5148   32.9080 O   0  0  0  0  0  0  0  0  0  0  0  0
   22.2000   25.9546   34.0607 N   0  0  0  0  0  0  0  0  0  0  0  0
   22.2660   19.7677   34.6527 N   0  0  0  0  0  0  0  0  0  0  0  0
   22.9818   19.3523   35.7738 N   0  0  0  0  0  0  0  0  0  0  0  0
   23.1247   19.8363   33.6201 N   0  0  0  0  0  0  0  0  0  0  0  0
  1  5  2  0
  1  6  1  0
  2  4  2  0
  2  8  1  0
  3  9  1  0
 12  3  1  1
  4 10  1  0
  5 16  1  0
  6 14  2  0
  7 11  1  0
  8 13  2  0
  9 11  1  0
 10 12  1  0
 10 15  2  0
 12 39  1  0
 13 15  1  0
 13 17  1  0
 14 19  1  0
 16 18  1  0
 16 19  2  0
 17 36  1  0
 18 22  1  0
 20 21  2  0
 20 24  1  0
 20 38  1  0
 21 25  1  0
 21 39  1  0
 22 24  1  0
 22 29  2  0
 23 26  2  0
 23 27  1  0
 24 32  2  0
 25 27  1  0
 25 35  2  0
 26 28  1  0
 27 30  2  0
 28 31  2  0
 29 33  1  0
 30 31  1  0
 32 34  1  0
 33 34  2  0
 37 38  1  0
 37 39  1  0
M  END
$$$$

     RDKit          3D

 42 45  0  0  0  0  0  0  0  0999 V2000
   21.0795   17.2812   28.8036 C   0  0  0  0  0  0  0  0  0  0  0  0
   21.6460   19.8601   36.1205 C   0  0  0  0  0  0  0  0  0  0  0  0
   21.7228   20.7594   29.4740 C   0  0  0  0  0  0  0  0  0  0  0  0
   22.1712   19.2788   29.2658 C   0  0  1  0  0  0  0  0  0  0  0  0
   22.0639   23.4139   36.0347 C   0  0  0  0  0  0  0  0  0  0  0  0
   22.2563   20.4928   36.8724 C   0  0  0  0  0  0  0  0  0  0  0  0
   22.2654   21.9977   31.5652 C   0  0  0  0  0  0  0  0  0  0  0  0
   22.6924   17.9495   39.2977 C   0  0  0  0  0  0  0  0  0  0  0  0
   22.5448   21.9971   36.4570 C   0  0  0  0  0  0  0  0  0  0  0  0
   22.8319   16.7514   39.9738 C   0  0  0  0  0  0  0  0  0  0  0  0
   22.8876   23.7278   33.8340 C   0  0  0  0  0  0  0  0  0  0  0  0
   23.1945   21.6748   32.6877 C   0  0  0  0  0  0  0  0  0  0  0  0
   23.4119   18.1964   38.1469 C   0  0  0  0  0  0  0  0  0  0  0  0
   23.7065   15.8167   39.5012 C   0  0  0  0  0  0  0  0  0  0  0  0
   23.5326   19.0289   29.8892 C   0  0  0  0  0  0  0  0  0  0  0  0
   23.7881   17.8936   30.6400 C   0  0  0  0  0  0  0  0  0  0  0  0
   24.1532   19.7449   33.9203 C   0  0  1  0  0  0  0  0  0  0  0  0
   24.4444   16.0314   38.3486 C   0  0  0  0  0  0  0  0  0  0  0  0
   24.2583   17.2030   37.6137 C   0  0  0  0  0  0  0  0  0  0  0  0
   24.3540   24.0941   35.8747 C   0  0  0  0  0  0  0  0  0  0  0  0
   24.5724   19.9185   29.6312 C   0  0  0  0  0  0  0  0  0  0  0  0
   24.8627   18.3307   35.4440 C   0  0  0  0  0  0  0  0  0  0  0  0
   25.0668   17.6394   31.1199 C   0  0  0  0  0  0  0  0  0  0  0  0
   25.4591   20.1871   34.3823 C   0  0  0  0  0  0  0  0  0  0  0  0
   25.8496   19.6876   30.0948 C   0  0  0  0  0  0  0  0  0  0  0  0
   26.1098   18.5463   30.8819 C   0  0  0  0  0  0  0  0  0  0  0  0
   27.0209   19.0702   36.1447 C   0  0  0  0  0  0  0  0  0  0  0  0
   27.0462   19.1678   37.5559 C   0  0  0  0  0  0  0  0  0  0  0  0
   27.4763   18.2994   31.4481 C   0  0  0  0  0  0  0  0  0  0  0  0
   28.1759   18.7954   35.4306 C   0  0  0  0  0  0  0  0  0  0  0  0
   28.2680   19.0127   38.2021 C   0  0  0  0  0  0  0  0  0  0  0  0
   29.3691   18.6629   36.1019 C   0  0  0  0  0  0  0  0  0  0  0  0
   29.4344   18.8117   37.4696 C   0  0  0  0  0  0  0  0  0  0  0  0
   21.2235   18.3434   29.7244 O   0  0  0  0  0  0  0  0  0  0  0  0
   23.9012   18.5962   34.5775 O   0  0  0  0  0  0  0  0  0  0  0  0
   21.7283   20.9575   30.9530 N   0  0  0  0  0  0  0  0  0  0  0  0
   22.9742   24.1348   35.2355 N   0  0  0  0  0  0  0  0  0  0  0  0
   23.3056   20.3899   33.0817 N   0  0  0  0  0  0  0  0  0  0  0  0
   23.6945   22.6666   33.4209 N   0  0  0  0  0  0  0  0  0  0  0  0
   24.9367   17.2762   36.3499 N   0  0  0  0  0  0  0  0  0  0  0  0
   25.8160   19.2257   35.3668 N   0  0  0  0  0  0  0  0  0  0  0  0
   21.9138   16.4462   41.4800 Cl  0  0  0  0  0  0  0  0  0  0  0  0
  1 34  1  0
  2  6  2  0
  4  3  1  1
  3 36  1  0
  4 15  1  0
  4 34  1  0
  5  9  1  0
  5 37  1  0
  6  9  1  0
  7 12  2  3
  7 36  1  0
  8 10  2  0
  8 13  1  0
 10 14  1  0
 10 42  1  0
 11 37  1  0
 11 39  1  0
 12 38  1  0
 12 39  1  0
 13 19  2  0
 14 18  2  0
 15 16  2  0
 15 21  1  0
 16 23  1  0
 17 24  1  0
 17 35  1  0
 17 38  1  1
 18 19  1  0
 19 40  1  0
 20 37  1  0
 21 25  2  0
 22 35  1  0
 22 40  2  3
 22 41  1  0
 23 26  2  0
 24 41  1  0
 25 26  1  0
 26 29  1  0
 27 28  2  0
 27 30  1  0
 27 41  1  0
 28 31  1  0
 30 32  2  0
 31 33  2  0
 32 33  1  0
M  END
$$$$

     RDKit          3D

 40 46  0  0  0  0  0  0  0  0999 V2000
   21.1528   18.7244   30.2539 C   0  0  0  0  0  0  0  0  0  0  0  0
   21.4649   18.7402   37.5488 C   0  0  0  0  0  0  0  0  0  0  0  0
   22.1782   20.6471   31.0374 C   0  0  0  0  0  0  0  0  0  0  0  0
   22.1996   21.9989   31.5805 C   0  0  0  0  0  0  0  0  0  0  0  0
   22.0241   23.1567   30.7859 C   0  0  0  0  0  0  0  0  0  0  0  0
   22.0972   24.4384   31.3619 C   0  0  0  0  0  0  0  0  0  0  0  0
   22.3592   18.1173   30.0807 C   0  0  0  0  0  0  0  0  0  0  0  0
   22.4538   22.5392   35.8767 C   0  0  0  0  0  0  0  0  0  0  0  0
   22.4559   23.4557   33.5247 C   0  0  0  0  0  0  0  0  0  0  0  0
   22.3402   24.5721   32.7095 C   0  0  0  0  0  0  0  0  0  0  0  0
   22.5103   16.9229   38.7458 C   0  0  0  0  0  0  0  0  0  0  0  0
   22.6475   18.0870   38.0020 C   0  0  0  0  0  0  0  0  0  0  0  0
   22.4940   22.1712   32.9659 C   0  0  0  0  0  0  0  0  0  0  0  0
   22.6226   23.6413   34.9413 C   0  0  0  0  0  0  0  0  0  0  0  0
   22.8529   20.1567   36.3479 C   0  0  0  0  0  0  0  0  0  0  0  0
   22.8368   21.0435   33.9082 C   0  0  0  0  0  0  0  0  0  0  0  0
   22.9904   21.2923   35.4036 C   0  0  1  0  0  0  0  0  0  0  0  0
   23.6380   16.1585   38.9446 C   0  0  0  0  0  0  0  0  0  0  0  0
   23.4752   18.8164   30.4246 C   0  0  0  0  0  0  0  0  0  0  0  0
   23.9150   18.5170   37.6034 C   0  0  0  0  0  0  0  0  0  0  0  0
   24.2630   17.5814   33.0159 C   0  0  0  0  0  0  0  0  0  0  0  0
   24.8835   16.5588   38.4674 C   0  0  0  0  0  0  0  0  0  0  0  0
   24.7849   18.1085   30.4497 C   0  0  2  0  0  0  0  0  0  0  0  0
   24.9765   17.4121   34.3963 C   0  0  0  0  0  0  0  0  0  0  0  0
   25.0365   17.7377   37.7981 C   0  0  0  0  0  0  0  0  0  0  0  0
   25.2985   17.8212   31.8859 C   0  0  2  0  0  0  0  0  0  0  0  0
   25.5790   18.7086   34.8951 C   0  0  0  0  0  0  0  0  0  0  0  0
   26.3715   18.1932   37.3104 C   0  0  0  0  0  0  0  0  0  0  0  0
   26.6170   18.6427   35.9889 C   0  0  0  0  0  0  0  0  0  0  0  0
   27.4525   18.1543   38.1884 C   0  0  0  0  0  0  0  0  0  0  0  0
   27.9199   19.0784   35.6427 C   0  0  0  0  0  0  0  0  0  0  0  0
   28.7085   18.5763   37.8256 C   0  0  0  0  0  0  0  0  0  0  0  0
   28.9455   19.0340   36.5585 C   0  0  0  0  0  0  0  0  0  0  0  0
   21.9627   22.7167   36.9647 O   0  0  0  0  0  0  0  0  0  0  0  0
   25.8814   19.0457   29.9962 O   0  0  0  0  0  0  0  0  0  0  0  0
   26.1262   16.6935   31.8115 O   0  0  0  0  0  0  0  0  0  0  0  0
   21.0551   19.9683   30.7550 N   0  0  0  0  0  0  0  0  0  0  0  0
   21.6363   19.7402   36.6682 N   0  0  0  0  0  0  0  0  0  0  0  0
   23.3730   20.0400   30.9366 N   0  0  0  0  0  0  0  0  0  0  0  0
   23.9459   19.7142   36.9536 N   0  0  0  0  0  0  0  0  0  0  0  0
  1  7  2  0
  1 37  1  0
  2 12  2  0
  2 38  1  0
  3  4  1  0
  3 37  2  0
  3 39  1  0
  4  5  2  0
  4 13  1  0
  5  6  1  0
  6 10  2  0
  7 19  1  0
  8 14  1  0
 17  8  1  1
  8 34  2  0
  9 10  1  0
  9 13  2  0
  9 14  1  0
 11 12  1  0
 11 18  1  0
 12 20  1  0
 13 16  1  0
 15 17  1  0
 15 38  2  0
 15 40  1  0
 16 17  1  0
 18 22  2  0
 19 23  1  0
 19 39  2  0
 20 25  2  0
 20 40  1  0
 21 24  1  0
 21 26  1  0
 22 25  1  0
 23 26  1  0
 23 35  1  1
 24 27  1  0
 25 28  1  0
 26 36  1  6
 27 29  1  0
 28 29  2  0
 28 30  1  0
 29 31  1  0
 30 32  2  0
 31 33  2  0
 32 33  1  0
M  END
$$$$

     RDKit          3D

 37 41  0  0  0  0  0  0  0  0999 V2000
   21.9403   20.0424   36.9926 C   0  0  0  0  0  0  0  0  0  0  0  0
   22.1224   16.6185   39.7073 C   0  0  0  0  0  0  0  0  0  0  0  0
   22.3702   17.4103   42.1313 C   0  0  0  0  0  0  0  0  0  0  0  0
   22.4539   20.5353   32.2702 C   0  0  0  0  0  0  0  0  0  0  0  0
   22.6961   16.4067   38.4354 C   0  0  0  0  0  0  0  0  0  0  0  0
   22.5635   19.9303   33.5234 C   0  0  0  0  0  0  0  0  0  0  0  0
   22.5975   21.9266   32.1637 C   0  0  0  0  0  0  0  0  0  0  0  0
   22.8173   17.3647   40.6699 C   0  0  0  0  0  0  0  0  0  0  0  0
   22.9417   20.6113   34.6609 C   0  0  0  0  0  0  0  0  0  0  0  0
   22.9593   22.6458   33.3047 C   0  0  0  0  0  0  0  0  0  0  0  0
   23.1784   19.9091   36.0270 C   0  0  2  0  0  0  0  0  0  0  0  0
   23.1833   21.9762   34.5182 C   0  0  0  0  0  0  0  0  0  0  0  0
   23.4224   19.3750   30.3389 C   0  0  0  0  0  0  0  0  0  0  0  0
   23.9606   16.9403   38.1680 C   0  0  0  0  0  0  0  0  0  0  0  0
   24.0595   17.9097   40.3564 C   0  0  0  0  0  0  0  0  0  0  0  0
   24.3337   20.4517   29.8861 C   0  0  0  0  0  0  0  0  0  0  0  0
   24.5895   16.6180   36.8585 C   0  0  0  0  0  0  0  0  0  0  0  0
   24.5894   17.8734   35.9844 C   0  0  1  0  0  0  0  0  0  0  0  0
   24.6566   17.7196   39.1179 C   0  0  0  0  0  0  0  0  0  0  0  0
   24.9197   16.0304   32.7256 C   0  0  0  0  0  0  0  0  0  0  0  0
   24.7202   16.2383   34.0828 C   0  0  0  0  0  0  0  0  0  0  0  0
   24.9803   17.4746   34.6150 C   0  0  0  0  0  0  0  0  0  0  0  0
   25.3335   17.0828   31.9236 C   0  0  0  0  0  0  0  0  0  0  0  0
   25.6051   18.4996   33.9071 C   0  0  0  0  0  0  0  0  0  0  0  0
   25.7583   18.3273   32.5123 C   0  0  0  0  0  0  0  0  0  0  0  0
   26.4293   19.3847   31.8554 C   0  0  0  0  0  0  0  0  0  0  0  0
   26.6601   20.5767   33.8665 C   0  0  0  0  0  0  0  0  0  0  0  0
   26.7681   20.5100   32.5065 C   0  0  0  0  0  0  0  0  0  0  0  0
   20.8752   19.2368   36.7878 O   0  0  0  0  0  0  0  0  0  0  0  0
   23.3217   18.4935   35.8883 O   0  0  0  0  0  0  0  0  0  0  0  0
   24.2355   20.4711   36.6639 O   0  0  0  0  0  0  0  0  0  0  0  0
   25.6485   20.1191   29.6234 O   0  0  0  0  0  0  0  0  0  0  0  0
   26.7224   17.8527   29.9048 O   0  0  0  0  0  0  0  0  0  0  0  0
   27.9862   20.0356   29.9005 O   0  0  0  0  0  0  0  0  0  0  0  0
   22.2409   19.8747   31.0595 N   0  0  0  0  0  0  0  0  0  0  0  0
   26.0746   19.6184   34.5144 N   0  0  0  0  0  0  0  0  0  0  0  0
   26.7246   19.3210   30.2225 S   0  0  0  0  0  0  0  0  0  0  0  0
  1 11  1  0
  1 29  1  0
  2  5  2  0
  2  8  1  0
  3  8  1  0
  4  6  2  0
  4  7  1  0
  4 35  1  0
  5 14  1  0
  6  9  1  0
  7 10  2  0
  8 15  2  0
  9 11  1  0
  9 12  2  0
 10 12  1  0
 11 30  1  0
 11 31  1  1
 13 16  1  0
 13 35  1  0
 14 17  1  0
 14 19  2  0
 15 19  1  0
 16 32  1  0
 18 17  1  1
 18 22  1  0
 18 30  1  0
 20 21  1  0
 20 23  2  0
 21 22  2  0
 22 24  1  0
 23 25  1  0
 24 25  1  0
 24 36  2  0
 25 26  2  0
 26 28  1  0
 26 37  1  0
 27 28  2  0
 27 36  1  0
 32 37  1  0
 33 37  1  0
 34 37  1  0
M  END
$$$$

     RDKit          3D

 43 47  0  0  0  0  0  0  0  0999 V2000
   21.4916   18.6621   29.9973 C   0  0  0  0  0  0  0  0  0  0  0  0
   22.1359   15.7835   40.4203 C   0  0  0  0  0  0  0  0  0  0  0  0
   22.0410   16.4397   41.6236 C   0  0  0  0  0  0  0  0  0  0  0  0
   22.1574   18.4705   28.6573 C   0  0  0  0  0  0  0  0  0  0  0  0
   22.0786   20.2417   35.9390 C   0  0  0  0  0  0  0  0  0  0  0  0
   22.2354   19.6012   37.2398 C   0  0  0  0  0  0  0  0  0  0  0  0
   22.5983   20.8957   30.7277 C   0  0  0  0  0  0  0  0  0  0  0  0
   22.8711   17.5250   41.9371 C   0  0  0  0  0  0  0  0  0  0  0  0
   22.8800   22.6759   33.1924 C   0  0  0  0  0  0  0  0  0  0  0  0
   23.0547   16.1931   39.4634 C   0  0  0  0  0  0  0  0  0  0  0  0
   23.3499   18.6103   36.9541 C   0  0  1  0  0  0  0  0  0  0  0  0
   23.3400   19.4352   35.7207 C   0  0  2  0  0  0  0  0  0  0  0  0
   23.8341   17.3281   39.7274 C   0  0  0  0  0  0  0  0  0  0  0  0
   23.7859   17.9518   40.9761 C   0  0  0  0  0  0  0  0  0  0  0  0
   23.7712   21.5831   32.8385 C   0  0  2  0  0  0  0  0  0  0  0  0
   24.0946   18.1523   32.6159 C   0  0  0  0  0  0  0  0  0  0  0  0
   24.3110   16.9123   33.1515 C   0  0  0  0  0  0  0  0  0  0  0  0
   24.2997   20.5578   35.6835 C   0  0  0  0  0  0  0  0  0  0  0  0
   24.8086   17.8846   38.8262 C   0  0  0  0  0  0  0  0  0  0  0  0
   24.8564   20.0724   31.2200 C   0  0  0  0  0  0  0  0  0  0  0  0
   25.0236   18.7711   31.7780 C   0  0  0  0  0  0  0  0  0  0  0  0
   25.1047   21.4275   33.4845 C   0  0  0  0  0  0  0  0  0  0  0  0
   25.3984   16.1769   32.7651 C   0  0  0  0  0  0  0  0  0  0  0  0
   25.9519   18.8714   37.2761 C   0  0  0  0  0  0  0  0  0  0  0  0
   26.1826   18.0092   31.4566 C   0  0  0  0  0  0  0  0  0  0  0  0
   26.3986   16.7092   31.9944 C   0  0  0  0  0  0  0  0  0  0  0  0
   26.5795   19.5606   36.2277 C   0  0  0  0  0  0  0  0  0  0  0  0
   26.7669   18.1894   38.1516 C   0  0  0  0  0  0  0  0  0  0  0  0
   27.1706   18.5871   30.6541 C   0  0  0  0  0  0  0  0  0  0  0  0
   26.9875   19.8585   30.1321 C   0  0  0  0  0  0  0  0  0  0  0  0
   28.1379   18.1066   38.0420 C   0  0  0  0  0  0  0  0  0  0  0  0
   27.9591   19.5417   36.1479 C   0  0  0  0  0  0  0  0  0  0  0  0
   28.0925   20.4504   29.3270 C   0  0  0  0  0  0  0  0  0  0  0  0
   28.7246   18.8009   37.0298 C   0  0  0  0  0  0  0  0  0  0  0  0
   21.7147   19.7745   30.7536 N   0  0  0  0  0  0  0  0  0  0  0  0
   23.7535   20.8549   31.5316 N   0  0  0  0  0  0  0  0  0  0  0  0
   24.1350   21.7404   35.3330 N   0  0  0  0  0  0  0  0  0  0  0  0
   24.5790   18.6514   37.7275 N   0  0  0  0  0  0  0  0  0  0  0  0
   25.8409   20.5509   30.4667 N   0  0  0  0  0  0  0  0  0  0  0  0
   26.0587   17.6052   39.0880 N   0  0  0  0  0  0  0  0  0  0  0  0
   25.7266   20.3681   35.0236 S   0  0  0  0  0  0  0  0  0  0  0  0
   21.0965   16.0078   42.5324 F   0  0  0  0  0  0  0  0  0  0  0  0
   30.4329   18.6361   36.8205 Cl  0  0  0  0  0  0  0  0  0  0  0  0
  1  4  1  0
  1 35  2  3
  2  3  2  0
  2 10  1  0
  3  8  1  0
  3 42  1  0
  5  6  1  0
  5 12  1  0
  6 11  1  0
  7 35  1  0
  7 36  1  0
  8 14  2  0
 15  9  1  6
 10 13  2  0
 11 12  1  0
 11 38  1  1
 12 18  1  1
 13 14  1  0
 13 19  1  0
 15 22  1  0
 15 36  1  0
 16 17  1  0
 16 21  1  0
 17 23  2  0
 18 37  2  0
 18 41  1  0
 19 38  1  0
 19 40  2  0
 20 21  2  3
 20 36  1  0
 20 39  1  0
 21 25  1  0
 22 41  1  0
 23 26  1  0
 24 27  2  0
 24 28  1  0
 24 38  1  0
 25 26  2  0
 25 29  1  0
 27 32  1  0
 28 31  2  0
 28 40  1  0
 29 30  2  0
 30 33  1  0
 31 34  1  0
 32 34  2  0
 34 43  1  0
M  END
$$$$

     RDKit          3D

 42 47  0  0  0  0  0  0  0  0999 V2000
   21.2612   25.4503   32.8194 C   0  0  0  0  0  0  0  0  0  0  0  0
   21.4638   26.4016   31.7744 C   0  0  0  0  0  0  0  0  0  0  0  0
   21.8449   24.3871   31.0777 C   0  0  0  0  0  0  0  0  0  0  0  0
   22.1708   16.0651   39.8098 C   0  0  0  0  0  0  0  0  0  0  0  0
   22.3043   19.4621   33.2345 C   0  0  0  0  0  0  0  0  0  0  0  0
   22.2411   23.2871   30.2738 C   0  0  0  0  0  0  0  0  0  0  0  0
   22.5336   16.8862   40.8597 C   0  0  0  0  0  0  0  0  0  0  0  0
   22.7064   19.4579   34.5514 C   0  0  0  0  0  0  0  0  0  0  0  0
   22.7069   20.9678   30.1658 C   0  0  0  0  0  0  0  0  0  0  0  0
   22.6411   23.4763   28.9547 C   0  0  0  0  0  0  0  0  0  0  0  0
   22.9273   16.0777   38.6467 C   0  0  0  0  0  0  0  0  0  0  0  0
   22.7202   19.6551   30.7882 C   0  0  0  0  0  0  0  0  0  0  0  0
   23.0913   21.1768   28.8362 C   0  0  1  0  0  0  0  0  0  0  0  0
   23.0678   22.4170   28.2026 C   0  0  0  0  0  0  0  0  0  0  0  0
   23.2191   19.5304   32.2157 C   0  0  0  0  0  0  0  0  0  0  0  0
   23.5988   17.7374   40.7173 C   0  0  0  0  0  0  0  0  0  0  0  0
   23.6606   20.0591   28.0118 C   0  0  0  0  0  0  0  0  0  0  0  0
   23.9996   16.9547   38.4909 C   0  0  0  0  0  0  0  0  0  0  0  0
   24.0746   19.3578   34.8994 C   0  0  0  0  0  0  0  0  0  0  0  0
   24.3241   17.7379   39.5514 C   0  0  0  0  0  0  0  0  0  0  0  0
   24.4615   19.2753   36.3274 C   0  0  0  0  0  0  0  0  0  0  0  0
   24.6243   19.4956   32.5417 C   0  0  1  0  0  0  0  0  0  0  0  0
   24.8476   16.9729   37.2147 C   0  0  0  0  0  0  0  0  0  0  0  0
   24.9896   19.4115   33.8920 C   0  0  0  0  0  0  0  0  0  0  0  0
   25.7089   19.4587   31.5493 C   0  0  0  0  0  0  0  0  0  0  0  0
   26.0658   18.2208   31.0313 C   0  0  0  0  0  0  0  0  0  0  0  0
   26.3158   20.6411   31.0897 C   0  0  0  0  0  0  0  0  0  0  0  0
   26.7507   18.6245   36.7938 C   0  0  0  0  0  0  0  0  0  0  0  0
   27.0625   18.1508   30.0961 C   0  0  0  0  0  0  0  0  0  0  0  0
   27.3841   19.3117   35.7612 C   0  0  0  0  0  0  0  0  0  0  0  0
   27.3623   20.5096   30.1416 C   0  0  0  0  0  0  0  0  0  0  0  0
   27.5763   18.1572   37.7997 C   0  0  0  0  0  0  0  0  0  0  0  0
   27.7019   19.2650   29.6489 C   0  0  0  0  0  0  0  0  0  0  0  0
   28.9352   18.4012   37.8333 C   0  0  0  0  0  0  0  0  0  0  0  0
   28.7452   19.5958   35.7545 C   0  0  0  0  0  0  0  0  0  0  0  0
   29.5118   19.1353   36.8103 C   0  0  0  0  0  0  0  0  0  0  0  0
   22.2059   18.7325   30.2072 O   0  0  0  0  0  0  0  0  0  0  0  0
   23.8042   19.9357   37.0832 O   0  0  0  0  0  0  0  0  0  0  0  0
   21.5008   24.2505   32.3357 N   0  0  0  0  0  0  0  0  0  0  0  0
   21.8295   25.6434   30.6650 N   0  0  0  0  0  0  0  0  0  0  0  0
   22.2749   22.0671   30.8416 N   0  0  0  0  0  0  0  0  0  0  0  0
   25.3177   18.3413   36.8757 N   0  0  0  0  0  0  0  0  0  0  0  0
  1  2  1  0
  1 39  1  0
  2 40  1  0
  3  6  2  3
  3 39  1  0
  3 40  1  0
  4  7  2  0
  4 11  1  0
  5  8  1  0
  5 15  2  0
  6 10  1  0
  6 41  1  0
  7 16  1  0
  8 19  1  0
  9 12  1  0
  9 13  1  0
  9 41  2  0
 10 14  2  0
 11 18  2  0
 12 15  1  0
 12 37  2  0
 13 14  1  0
 13 17  1  1
 15 22  1  0
 16 20  2  0
 18 20  1  0
 18 23  1  0
 19 21  1  0
 19 24  2  0
 21 38  2  0
 21 42  1  0
 22 24  1  0
 22 25  1  6
 23 42  1  0
 25 26  2  0
 25 27  1  0
 26 29  1  0
 27 31  2  0
 28 30  2  0
 28 32  1  0
 28 42  1  0
 29 33  2  0
 30 35  1  0
 31 33  1  0
 32 34  2  0
 34 36  1  0
 35 36  2  0
M  END
$$$$

     RDKit          3D

 42 47  0  0  0  0  0  0  0  0999 V2000
   20.4936   25.6531   34.1569 C   0  0  0  0  0  0  0  0  0  0  0  0
   20.6265   27.1270   34.3618 C   0  0  0  0  0  0  0  0  0  0  0  0
   21.2851   17.1608   42.1865 C   0  0  0  0  0  0  0  0  0  0  0  0
   21.4354   25.5872   31.8063 C   0  0  0  0  0  0  0  0  0  0  0  0
   21.7887   22.5272   31.6152 C   0  0  0  0  0  0  0  0  0  0  0  0
   21.9774   16.5738   39.8315 C   0  0  0  0  0  0  0  0  0  0  0  0
   22.2301   17.2030   41.0445 C   0  0  0  0  0  0  0  0  0  0  0  0
   22.3767   21.7156   30.5314 C   0  0  0  0  0  0  0  0  0  0  0  0
   22.2657   24.0493   33.6614 C   0  0  0  0  0  0  0  0  0  0  0  0
   22.6238   22.9374   32.7259 C   0  0  0  0  0  0  0  0  0  0  0  0
   22.9402   16.6123   38.8293 C   0  0  0  0  0  0  0  0  0  0  0  0
   23.4073   17.8924   41.2359 C   0  0  0  0  0  0  0  0  0  0  0  0
   23.4808   20.7795   30.9116 C   0  0  0  0  0  0  0  0  0  0  0  0
   23.8155   22.1662   32.9686 C   0  0  0  0  0  0  0  0  0  0  0  0
   24.1416   17.2882   39.0211 C   0  0  0  0  0  0  0  0  0  0  0  0
   24.3340   17.9280   40.2305 C   0  0  0  0  0  0  0  0  0  0  0  0
   24.9385   16.6902   33.1685 C   0  0  0  0  0  0  0  0  0  0  0  0
   25.1934   17.3328   37.9448 C   0  0  0  0  0  0  0  0  0  0  0  0
   25.0835   18.0285   32.9583 C   0  0  0  0  0  0  0  0  0  0  0  0
   25.3902   20.7439   32.4523 C   0  0  0  0  0  0  0  0  0  0  0  0
   25.4972   15.7985   32.3135 C   0  0  0  0  0  0  0  0  0  0  0  0
   25.6815   21.2571   33.7001 C   0  0  0  0  0  0  0  0  0  0  0  0
   25.9427   18.4655   31.9275 C   0  0  0  0  0  0  0  0  0  0  0  0
   26.1340   19.8056   31.6420 C   0  0  0  0  0  0  0  0  0  0  0  0
   26.5484   17.4651   31.1370 C   0  0  0  0  0  0  0  0  0  0  0  0
   26.5353   17.9326   38.4108 C   0  0  0  0  0  0  0  0  0  0  0  0
   26.4815   20.6802   36.0307 C   0  0  0  0  0  0  0  0  0  0  0  0
   26.8688   20.8840   34.5712 C   0  0  0  0  0  0  0  0  0  0  0  0
   27.1899   19.4764   36.6409 C   0  0  0  0  0  0  0  0  0  0  0  0
   26.9815   20.1810   30.6286 C   0  0  0  0  0  0  0  0  0  0  0  0
   27.4732   17.8483   30.1061 C   0  0  0  0  0  0  0  0  0  0  0  0
   27.6322   19.1998   29.8530 C   0  0  0  0  0  0  0  0  0  0  0  0
   19.3027   26.8446   30.8991 O   0  0  0  0  0  0  0  0  0  0  0  0
   20.2257   27.5595   33.0933 O   0  0  0  0  0  0  0  0  0  0  0  0
   22.6960   24.0258   34.8339 O   0  0  0  0  0  0  0  0  0  0  0  0
   26.7701   19.2507   37.9177 O   0  0  0  0  0  0  0  0  0  0  0  0
   20.2759   16.2668   42.1074 N   0  0  0  0  0  0  0  0  0  0  0  0
   21.4646   25.1239   33.2083 N   0  0  0  0  0  0  0  0  0  0  0  0
   24.2159   21.2439   32.0504 N   0  0  0  0  0  0  0  0  0  0  0  0
   24.7040   22.1706   33.9954 N   0  0  0  0  0  0  0  0  0  0  0  0
   26.2849   16.1660   31.3199 N   0  0  0  0  0  0  0  0  0  0  0  0
   20.5392   27.0781   31.6179 P   0  0  0  0  0  0  0  0  0  0  0  0
  1  2  1  0
  1 38  1  0
  2 34  1  0
  3  7  2  3
  3 37  1  0
  4 38  1  0
  4 42  1  0
  5  8  1  0
  5 10  1  0
  6  7  1  0
  6 11  1  0
  7 12  1  0
  8 13  1  0
  9 10  1  0
  9 35  2  0
  9 38  1  0
 10 14  2  0
 11 15  2  0
 12 16  2  0
 13 39  1  0
 14 39  1  0
 14 40  1  0
 15 16  1  0
 15 18  1  0
 17 19  2  0
 17 21  1  0
 18 26  1  0
 19 23  1  0
 20 22  2  0
 20 24  1  0
 20 39  1  0
 21 41  2  0
 22 28  1  0
 22 40  1  0
 23 24  2  0
 23 25  1  0
 24 30  1  0
 25 31  2  0
 25 41  1  0
 26 36  1  0
 27 28  1  0
 27 29  1  0
 29 36  1  0
 30 32  2  0
 31 32  1  0
 33 42  1  0
 34 42  1  0
M  END
$$$$

     RDKit          3D

 37 41  0  0  0  0  0  0  0  0999 V2000
   21.4934   15.9740   40.8863 C   0  0  0  0  0  0  0  0  0  0  0  0
   21.9998   16.2061   39.6369 C   0  0  0  0  0  0  0  0  0  0  0  0
   22.0211   16.6094   41.9919 C   0  0  0  0  0  0  0  0  0  0  0  0
   22.3080   18.8070   28.0498 C   0  0  0  0  0  0  0  0  0  0  0  0
   22.3978   20.7046   32.2948 C   0  0  0  0  0  0  0  0  0  0  0  0
   22.4880   18.8016   29.4177 C   0  0  0  0  0  0  0  0  0  0  0  0
   22.5993   19.9309   27.3385 C   0  0  0  0  0  0  0  0  0  0  0  0
   23.0389   17.1334   39.4713 C   0  0  0  0  0  0  0  0  0  0  0  0
   23.0619   17.5469   41.8786 C   0  0  0  0  0  0  0  0  0  0  0  0
   22.9762   19.3637   35.5578 C   0  0  0  0  0  0  0  0  0  0  0  0
   23.1687   19.5898   34.1632 C   0  0  0  0  0  0  0  0  0  0  0  0
   22.9736   19.9170   30.0502 C   0  0  0  0  0  0  0  0  0  0  0  0
   23.0099   21.0523   27.9468 C   0  0  0  0  0  0  0  0  0  0  0  0
   23.2097   21.0738   29.3227 C   0  0  0  0  0  0  0  0  0  0  0  0
   23.2620   19.9527   31.4935 C   0  0  0  0  0  0  0  0  0  0  0  0
   23.5645   17.3465   38.1150 C   0  0  0  0  0  0  0  0  0  0  0  0
   23.5615   17.7795   40.5931 C   0  0  0  0  0  0  0  0  0  0  0  0
   23.9831   18.8254   36.3563 C   0  0  0  0  0  0  0  0  0  0  0  0
   24.2945   19.1634   33.5203 C   0  0  0  0  0  0  0  0  0  0  0  0
   25.1698   18.5126   35.6812 C   0  0  0  0  0  0  0  0  0  0  0  0
   25.3257   18.6636   34.3193 C   0  0  0  0  0  0  0  0  0  0  0  0
   25.4325   18.8985   31.3847 C   0  0  0  0  0  0  0  0  0  0  0  0
   25.6009   17.5305   31.1740 C   0  0  0  0  0  0  0  0  0  0  0  0
   26.2797   18.3171   36.6156 C   0  0  0  0  0  0  0  0  0  0  0  0
   26.3765   19.7715   30.8629 C   0  0  0  0  0  0  0  0  0  0  0  0
   26.7118   16.9893   30.5623 C   0  0  0  0  0  0  0  0  0  0  0  0
   27.3269   19.3952   36.9257 C   0  0  0  0  0  0  0  0  0  0  0  0
   27.6337   17.9087   30.0662 C   0  0  0  0  0  0  0  0  0  0  0  0
   27.4825   19.3049   30.1972 C   0  0  0  0  0  0  0  0  0  0  0  0
   28.0797   19.6717   35.6748 C   0  0  0  0  0  0  0  0  0  0  0  0
   28.3598   18.9459   37.9701 C   0  0  0  0  0  0  0  0  0  0  0  0
   21.7556   21.7236   31.8763 O   0  0  0  0  0  0  0  0  0  0  0  0
   22.2140   20.2332   33.4597 O   0  0  0  0  0  0  0  0  0  0  0  0
   23.7874   18.6601   37.7303 O   0  0  0  0  0  0  0  0  0  0  0  0
   24.3130   19.3385   32.1299 N   0  0  0  0  0  0  0  0  0  0  0  0
   26.1732   21.0982   31.0162 F   0  0  0  0  0  0  0  0  0  0  0  0
   21.5591   17.3248   27.4574 Cl  0  0  0  0  0  0  0  0  0  0  0  0
  1  2  2  0
  1  3  1  0
  2  8  1  0
  3  9  2  0
  4  6  2  0
  4  7  1  0
  4 37  1  0
  5 15  1  0
  5 32  2  0
  5 33  1  0
  6 12  1  0
  7 13  2  0
  8 16  1  0
  8 17  2  0
  9 17  1  0
 10 11  2  0
 10 18  1  0
 11 19  1  0
 11 33  1  0
 12 14  2  0
 12 15  1  0
 13 14  1  0
 15 35  1  0
 16 34  1  0
 18 20  2  0
 18 34  1  0
 19 21  2  0
 19 35  1  0
 20 21  1  0
 20 24  1  0
 22 23  1  0
 22 25  1  0
 22 35  1  0
 23 26  2  0
 24 27  1  0
 25 29  2  0
 25 36  1  0
 26 28  1  0
 27 30  1  0
 27 31  1  0
 28 29  1  0
M  END
$$$$

     RDKit          3D

 29 31  0  0  0  0  0  0  0  0999 V2000
   21.8492   17.8860   29.8486 C   0  0  0  0  0  0  0  0  0  0  0  0
   21.9053   19.9069   31.3219 C   0  0  0  0  0  0  0  0  0  0  0  0
   21.9636   19.2788   32.7282 C   0  0  0  0  0  0  0  0  0  0  0  0
   22.4519   19.3807   35.6387 C   0  0  0  0  0  0  0  0  0  0  0  0
   22.6455   17.1079   40.6973 C   0  0  0  0  0  0  0  0  0  0  0  0
   22.6132   19.1533   30.1988 C   0  0  2  0  0  0  0  0  0  0  0  0
   22.5915   19.1409   37.0172 C   0  0  0  0  0  0  0  0  0  0  0  0
   22.6374   20.0335   28.9036 C   0  0  0  0  0  0  0  0  0  0  0  0
   22.5766   21.6781   29.3771 C   0  0  0  0  0  0  0  0  0  0  0  0
   23.3598   19.2635   33.2234 C   0  0  1  0  0  0  0  0  0  0  0  0
   23.4697   17.0442   39.4963 C   0  0  0  0  0  0  0  0  0  0  0  0
   23.4722   19.0436   34.7218 C   0  0  0  0  0  0  0  0  0  0  0  0
   23.7293   18.5406   37.5335 C   0  0  0  0  0  0  0  0  0  0  0  0
   24.1198   18.2863   32.3092 C   0  0  1  0  0  0  0  0  0  0  0  0
   24.0545   18.7656   30.7063 C   0  0  2  0  0  0  0  0  0  0  0  0
   24.6996   18.5146   35.2443 C   0  0  0  0  0  0  0  0  0  0  0  0
   24.7997   18.3098   36.6370 C   0  0  0  0  0  0  0  0  0  0  0  0
   25.0303   19.9358   30.5540 C   0  0  0  0  0  0  0  0  0  0  0  0
   25.5379   18.2039   32.8121 C   0  0  0  0  0  0  0  0  0  0  0  0
   25.7567   18.1765   34.2739 C   0  0  0  0  0  0  0  0  0  0  0  0
   26.7516   19.0792   37.2282 C   0  0  0  0  0  0  0  0  0  0  0  0
   27.7323   18.8442   38.2719 C   0  0  0  0  0  0  0  0  0  0  0  0
   29.1368   18.6836   37.8320 C   0  0  0  0  0  0  0  0  0  0  0  0
   29.3806   19.0198   36.4580 C   0  0  0  0  0  0  0  0  0  0  0  0
   21.5302   20.0188   28.1491 O   0  0  0  0  0  0  0  0  0  0  0  0
   23.6968   19.9187   28.1338 O   0  0  0  0  0  0  0  0  0  0  0  0
   23.8627   15.9492   39.0955 O   0  0  0  0  0  0  0  0  0  0  0  0
   23.7960   18.2521   38.8953 O   0  0  0  0  0  0  0  0  0  0  0  0
   25.9801   17.8914   37.1212 O   0  0  0  0  0  0  0  0  0  0  0  0
  6  1  1  6
  2  3  1  0
  2  6  1  0
 10  3  1  6
  4  7  2  0
  4 12  1  0
  5 11  1  0
  6  8  1  0
  6 15  1  0
  7 13  1  0
  8  9  1  0
  8 25  1  0
  8 26  1  0
 10 12  1  0
 10 14  1  0
 11 27  2  0
 11 28  1  0
 12 16  2  0
 13 17  2  0
 13 28  1  0
 14 15  1  0
 14 19  1  1
 15 18  1  1
 16 17  1  0
 16 20  1  0
 17 29  1  0
 19 20  2  0
 21 22  1  0
 21 29  1  0
 22 23  1  0
 23 24  1  0
M  END
$$$$

     RDKit          3D

 47 53  0  0  0  0  0  0  0  0999 V2000
   21.3586   18.1049   29.7300 C   0  0  0  0  0  0  0  0  0  0  0  0
   21.6909   15.9079   40.6495 C   0  0  0  0  0  0  0  0  0  0  0  0
   21.6040   18.8372   30.8614 C   0  0  0  0  0  0  0  0  0  0  0  0
   21.6393   22.6571   30.9884 C   0  0  0  0  0  0  0  0  0  0  0  0
   21.6635   24.0111   30.8264 C   0  0  0  0  0  0  0  0  0  0  0  0
   22.1711   16.0592   39.4230 C   0  0  0  0  0  0  0  0  0  0  0  0
   22.1598   16.7073   41.6681 C   0  0  0  0  0  0  0  0  0  0  0  0
   22.0297   18.3859   28.5340 C   0  0  0  0  0  0  0  0  0  0  0  0
   21.9675   23.8646   35.5269 C   0  0  0  0  0  0  0  0  0  0  0  0
   22.3981   22.1166   32.0379 C   0  0  0  0  0  0  0  0  0  0  0  0
   22.3899   26.7369   35.9106 C   0  0  0  0  0  0  0  0  0  0  0  0
   22.4927   19.8940   30.8561 C   0  0  0  0  0  0  0  0  0  0  0  0
   22.5872   20.6615   32.1082 C   0  0  1  0  0  0  0  0  0  0  0  0
   22.9128   22.9325   32.9879 C   0  0  0  0  0  0  0  0  0  0  0  0
   22.8622   24.2934   32.8569 C   0  0  0  0  0  0  0  0  0  0  0  0
   23.1469   17.5562   41.3898 C   0  0  0  0  0  0  0  0  0  0  0  0
   22.9991   19.4042   28.5572 C   0  0  0  0  0  0  0  0  0  0  0  0
   23.0459   20.0344   33.3970 C   0  0  2  0  0  0  0  0  0  0  0  0
   23.2109   20.1918   29.6851 C   0  0  0  0  0  0  0  0  0  0  0  0
   23.2157   16.9094   39.1318 C   0  0  0  0  0  0  0  0  0  0  0  0
   23.3037   24.6674   35.3143 C   0  0  1  0  0  0  0  0  0  0  0  0
   23.3712   25.2382   33.8884 C   0  0  0  0  0  0  0  0  0  0  0  0
   23.6873   16.9391   37.6802 C   0  0  0  0  0  0  0  0  0  0  0  0
   23.7146   17.6644   40.1551 C   0  0  0  0  0  0  0  0  0  0  0  0
   24.2065   19.0544   35.1083 C   0  0  0  0  0  0  0  0  0  0  0  0
   24.2099   19.4051   33.7471 C   0  0  0  0  0  0  0  0  0  0  0  0
   24.9342   17.6395   37.2956 C   0  0  0  0  0  0  0  0  0  0  0  0
   24.9670   16.7798   32.9716 C   0  0  0  0  0  0  0  0  0  0  0  0
   25.1847   18.5403   36.1578 C   0  0  0  0  0  0  0  0  0  0  0  0
   25.2736   15.5144   32.5363 C   0  0  0  0  0  0  0  0  0  0  0  0
   25.2789   19.1979   32.7824 C   0  0  1  0  0  0  0  0  0  0  0  0
   25.4935   17.9036   32.3269 C   0  0  0  0  0  0  0  0  0  0  0  0
   26.0474   15.3895   31.3899 C   0  0  0  0  0  0  0  0  0  0  0  0
   26.0239   17.3651   38.1316 C   0  0  0  0  0  0  0  0  0  0  0  0
   25.9874   20.2915   32.3063 C   0  0  0  0  0  0  0  0  0  0  0  0
   26.2797   17.7603   31.1856 C   0  0  0  0  0  0  0  0  0  0  0  0
   26.5484   16.4793   30.7109 C   0  0  0  0  0  0  0  0  0  0  0  0
   26.8952   18.8847   30.6279 C   0  0  0  0  0  0  0  0  0  0  0  0
   26.8162   20.1364   31.2152 C   0  0  0  0  0  0  0  0  0  0  0  0
   27.2275   17.9079   37.9240 C   0  0  0  0  0  0  0  0  0  0  0  0
   27.3848   18.8220   36.8988 C   0  0  0  0  0  0  0  0  0  0  0  0
   23.2592   25.7311   36.2616 O   0  0  0  0  0  0  0  0  0  0  0  0
   22.3371   19.8756   34.4948 N   0  0  0  0  0  0  0  0  0  0  0  0
   22.2824   24.8088   31.7368 N   0  0  0  0  0  0  0  0  0  0  0  0
   23.0359   19.4434   35.5278 N   0  0  0  0  0  0  0  0  0  0  0  0
   26.4042   19.0790   36.0367 N   0  0  0  0  0  0  0  0  0  0  0  0
   21.6713   17.4532   27.1240 Cl  0  0  0  0  0  0  0  0  0  0  0  0
  1  3  2  0
  1  8  1  0
  2  6  2  0
  2  7  1  0
  3 12  1  0
  4  5  1  0
  4 10  1  0
  5 44  2  0
  6 20  1  0
  7 16  2  0
  8 17  2  0
  8 47  1  0
 21  9  1  6
 13 10  1  6
 10 14  2  0
 11 42  1  0
 12 13  1  0
 12 19  2  0
 13 18  1  0
 14 15  1  0
 15 22  1  0
 15 44  1  0
 16 24  1  0
 17 19  1  0
 18 26  1  0
 18 43  1  6
 20 23  1  0
 20 24  2  0
 21 22  1  0
 21 42  1  0
 23 27  1  0
 25 26  2  0
 25 29  1  0
 25 45  1  0
 31 26  1  6
 27 29  1  0
 27 34  2  0
 28 30  2  0
 28 32  1  0
 29 46  2  0
 30 33  1  0
 31 32  1  0
 31 35  1  0
 32 36  1  0
 33 37  2  0
 34 40  1  0
 35 39  2  0
 36 37  1  0
 36 38  2  0
 38 39  1  0
 40 41  2  0
 41 46  1  0
 43 45  1  0
M  END
$$$$

     RDKit          3D

 37 40  0  0  0  0  0  0  0  0999 V2000
   21.1525   17.1692   27.2543 C   0  0  0  0  0  0  0  0  0  0  0  0
   21.3682   17.3756   28.7556 C   0  0  0  0  0  0  0  0  0  0  0  0
   21.3331   19.4427   30.0625 C   0  0  0  0  0  0  0  0  0  0  0  0
   21.4735   15.9736   41.8003 C   0  0  0  0  0  0  0  0  0  0  0  0
   21.7059   19.3893   31.4189 C   0  0  0  0  0  0  0  0  0  0  0  0
   21.6628   20.5789   29.2699 C   0  0  0  0  0  0  0  0  0  0  0  0
   21.7920   19.6533   36.6118 C   0  0  0  0  0  0  0  0  0  0  0  0
   22.4010   17.8785   38.1890 C   0  0  0  0  0  0  0  0  0  0  0  0
   22.4329   20.4429   31.9530 C   0  0  0  0  0  0  0  0  0  0  0  0
   22.3929   21.6323   29.8359 C   0  0  0  0  0  0  0  0  0  0  0  0
   22.6348   16.4468   40.9456 C   0  0  0  0  0  0  0  0  0  0  0  0
   22.4911   19.8975   34.4398 C   0  0  0  0  0  0  0  0  0  0  0  0
   22.7692   18.8584   37.2568 C   0  0  0  0  0  0  0  0  0  0  0  0
   22.8573   20.6820   33.3020 C   0  0  0  0  0  0  0  0  0  0  0  0
   22.7132   21.5728   31.2192 C   0  0  0  0  0  0  0  0  0  0  0  0
   22.9963   15.9360   39.5730 C   0  0  0  0  0  0  0  0  0  0  0  0
   23.4925   21.9842   33.2085 C   0  0  0  0  0  0  0  0  0  0  0  0
   23.9520   23.0162   34.1883 C   0  0  0  0  0  0  0  0  0  0  0  0
   24.6797   17.2189   38.3707 C   0  0  0  0  0  0  0  0  0  0  0  0
   25.0460   18.2329   37.4765 C   0  0  0  0  0  0  0  0  0  0  0  0
   25.7969   19.3494   32.5975 C   0  0  0  0  0  0  0  0  0  0  0  0
   26.0031   20.1145   33.8852 C   0  0  0  0  0  0  0  0  0  0  0  0
   26.4136   17.9493   32.6384 C   0  0  0  0  0  0  0  0  0  0  0  0
   26.4549   18.4976   37.1276 C   0  0  0  0  0  0  0  0  0  0  0  0
   26.4465   20.1752   31.4811 C   0  0  0  0  0  0  0  0  0  0  0  0
   26.7474   19.1006   35.8814 C   0  0  0  0  0  0  0  0  0  0  0  0
   27.5470   18.1883   37.9943 C   0  0  0  0  0  0  0  0  0  0  0  0
   28.0632   19.3797   35.5043 C   0  0  0  0  0  0  0  0  0  0  0  0
   28.8644   18.4781   37.6180 C   0  0  0  0  0  0  0  0  0  0  0  0
   29.1108   19.0349   36.3630 C   0  0  0  0  0  0  0  0  0  0  0  0
   20.6078   18.4521   29.4022 O   0  0  0  0  0  0  0  0  0  0  0  0
   22.2954   18.7232   34.1857 O   0  0  0  0  0  0  0  0  0  0  0  0
   25.7324   19.4302   35.0617 O   0  0  0  0  0  0  0  0  0  0  0  0
   22.2219   20.4212   35.5903 N   0  0  0  0  0  0  0  0  0  0  0  0
   23.3497   17.0520   38.6662 N   0  0  0  0  0  0  0  0  0  0  0  0
   23.3461   22.5306   31.9338 N   0  0  0  0  0  0  0  0  0  0  0  0
   24.0863   19.0462   36.9291 N   0  0  0  0  0  0  0  0  0  0  0  0
  1  2  1  0
  2 31  1  0
  3  5  2  0
  3  6  1  0
  3 31  1  0
  4 11  1  0
  5  9  1  0
  6 10  2  0
  7 13  1  0
  7 34  1  0
  8 13  2  0
  8 35  1  0
  9 14  1  0
  9 15  2  0
 10 15  1  0
 11 16  1  0
 12 14  1  0
 12 32  2  0
 12 34  1  0
 13 37  1  0
 14 17  2  0
 15 36  1  0
 16 35  1  0
 17 18  1  0
 17 36  1  0
 19 20  1  0
 19 35  1  0
 20 24  1  0
 20 37  2  0
 21 22  1  0
 21 23  1  0
 21 25  1  0
 22 33  1  0
 24 26  2  0
 24 27  1  0
 26 28  1  0
 26 33  1  0
 27 29  2  0
 28 30  2  0
 29 30  1  0
M  END
$$$$

     RDKit          3D

 37 43  0  0  0  0  0  0  0  0999 V2000
   21.2153   18.6569   30.0434 C   0  0  0  0  0  0  0  0  0  0  0  0
   21.7684   19.1076   37.5727 C   0  0  0  0  0  0  0  0  0  0  0  0
   21.9528   22.8722   30.5508 C   0  0  0  0  0  0  0  0  0  0  0  0
   21.9373   24.2162   30.8965 C   0  0  0  0  0  0  0  0  0  0  0  0
   22.2169   20.5506   31.0030 C   0  0  0  0  0  0  0  0  0  0  0  0
   22.2291   21.9066   31.5031 C   0  0  0  0  0  0  0  0  0  0  0  0
   22.2150   24.5632   32.2084 C   0  0  0  0  0  0  0  0  0  0  0  0
   22.4824   18.0072   30.0608 C   0  0  0  0  0  0  0  0  0  0  0  0
   22.6177   22.2431   32.8429 C   0  0  0  0  0  0  0  0  0  0  0  0
   22.5893   23.6227   33.1702 C   0  0  0  0  0  0  0  0  0  0  0  0
   22.7573   17.1150   38.7029 C   0  0  0  0  0  0  0  0  0  0  0  0
   22.9323   18.2757   37.9560 C   0  0  0  0  0  0  0  0  0  0  0  0
   23.2889   20.4275   36.2419 C   0  0  2  0  0  0  0  0  0  0  0  0
   23.6196   18.6551   30.5778 C   0  0  0  0  0  0  0  0  0  0  0  0
   23.4805   19.9551   30.9829 C   0  0  0  0  0  0  0  0  0  0  0  0
   23.5046   21.5619   35.1711 C   0  0  0  0  0  0  0  0  0  0  0  0
   23.8682   16.4103   39.1067 C   0  0  0  0  0  0  0  0  0  0  0  0
   24.1993   18.7127   37.6090 C   0  0  0  0  0  0  0  0  0  0  0  0
   25.1654   16.8148   38.7267 C   0  0  0  0  0  0  0  0  0  0  0  0
   24.9917   17.3822   33.1872 C   0  0  0  0  0  0  0  0  0  0  0  0
   25.3185   17.9552   37.9289 C   0  0  0  0  0  0  0  0  0  0  0  0
   25.3531   18.2552   32.1458 C   0  0  0  0  0  0  0  0  0  0  0  0
   25.5234   17.5722   34.4915 C   0  0  0  0  0  0  0  0  0  0  0  0
   26.2062   19.3060   32.4732 C   0  0  0  0  0  0  0  0  0  0  0  0
   26.3570   18.6256   34.8124 C   0  0  0  0  0  0  0  0  0  0  0  0
   26.6773   18.3729   37.4945 C   0  0  0  0  0  0  0  0  0  0  0  0
   26.6786   19.5061   33.7698 C   0  0  0  0  0  0  0  0  0  0  0  0
   27.1116   18.7185   36.1496 C   0  0  0  0  0  0  0  0  0  0  0  0
   27.6160   18.4378   38.5211 C   0  0  0  0  0  0  0  0  0  0  0  0
   28.4264   19.2009   36.0120 C   0  0  0  0  0  0  0  0  0  0  0  0
   28.8695   18.9291   38.3234 C   0  0  0  0  0  0  0  0  0  0  0  0
   29.3192   19.2857   37.0588 C   0  0  0  0  0  0  0  0  0  0  0  0
   22.0922   20.0836   36.5896 O   0  0  0  0  0  0  0  0  0  0  0  0
   24.8562   18.0518   30.8051 O   0  0  0  0  0  0  0  0  0  0  0  0
   21.1204   19.9102   30.5715 N   0  0  0  0  0  0  0  0  0  0  0  0
   23.0414   21.2209   33.8192 N   0  0  0  0  0  0  0  0  0  0  0  0
   24.3390   19.9163   36.8799 N   0  0  0  0  0  0  0  0  0  0  0  0
  1  8  2  0
  1 35  1  0
  2 12  1  0
  2 33  1  0
  3  4  1  0
  3  6  2  0
  4  7  2  0
  5  6  1  0
  5 15  1  0
  5 35  2  0
  6  9  1  0
  7 10  1  0
  8 14  1  0
  9 10  2  0
  9 36  1  0
 11 12  2  0
 11 17  1  0
 12 18  1  0
 13 16  1  0
 13 33  1  1
 13 37  1  0
 14 15  2  0
 14 34  1  0
 16 36  1  0
 17 19  2  0
 18 21  2  0
 18 37  1  0
 19 21  1  0
 20 22  1  0
 20 23  1  0
 21 26  1  0
 22 24  2  0
 22 34  1  0
 23 25  2  0
 24 27  1  0
 25 27  1  0
 25 28  1  0
 26 28  2  0
 26 29  1  0
 28 30  1  0
 29 31  2  0
 30 32  2  0
 31 32  1  0
M  END
$$$$

     RDKit          3D

 34 37  0  0  0  0  0  0  0  0999 V2000
   20.8288   18.5455   29.8645 C   0  0  0  0  0  0  0  0  0  0  0  0
   22.1846   16.3424   39.6214 C   0  0  0  0  0  0  0  0  0  0  0  0
   22.1670   18.2498   29.3643 C   0  0  0  0  0  0  0  0  0  0  0  0
   22.0833   20.2228   36.5036 C   0  0  0  0  0  0  0  0  0  0  0  0
   22.6263   17.1827   40.6573 C   0  0  0  0  0  0  0  0  0  0  0  0
   22.6332   22.3383   31.6360 C   0  0  0  0  0  0  0  0  0  0  0  0
   22.6245   22.9544   32.9175 C   0  0  0  0  0  0  0  0  0  0  0  0
   22.9543   16.2045   38.4480 C   0  0  0  0  0  0  0  0  0  0  0  0
   22.9131   20.1531   32.7521 C   0  0  0  0  0  0  0  0  0  0  0  0
   22.9205   20.7626   34.0750 C   0  0  0  0  0  0  0  0  0  0  0  0
   22.8804   20.9434   31.5545 C   0  0  0  0  0  0  0  0  0  0  0  0
   22.7961   22.1852   34.1205 C   0  0  0  0  0  0  0  0  0  0  0  0
   22.9649   19.8152   35.2959 C   0  0  1  0  0  0  0  0  0  0  0  0
   23.1022   20.3144   30.1754 C   0  0  0  0  0  0  0  0  0  0  0  0
   23.8518   17.8756   40.5096 C   0  0  0  0  0  0  0  0  0  0  0  0
   24.1326   16.9462   38.2373 C   0  0  0  0  0  0  0  0  0  0  0  0
   24.3302   19.4348   36.0431 C   0  0  1  0  0  0  0  0  0  0  0  0
   24.5763   17.9174   35.7640 C   0  0  2  0  0  0  0  0  0  0  0  0
   24.6043   17.7262   39.3422 C   0  0  0  0  0  0  0  0  0  0  0  0
   24.8518   16.2301   33.8682 C   0  0  0  0  0  0  0  0  0  0  0  0
   24.9009   16.9438   36.8871 C   0  0  0  0  0  0  0  0  0  0  0  0
   24.9493   17.5618   34.3878 C   0  0  2  0  0  0  0  0  0  0  0  0
   25.6113   18.6369   33.6270 C   0  0  0  0  0  0  0  0  0  0  0  0
   25.9506   18.4149   32.2849 C   0  0  0  0  0  0  0  0  0  0  0  0
   25.8491   19.9246   34.2024 C   0  0  0  0  0  0  0  0  0  0  0  0
   26.4567   20.9172   33.4437 C   0  0  0  0  0  0  0  0  0  0  0  0
   26.5453   19.4335   31.5403 C   0  0  0  0  0  0  0  0  0  0  0  0
   26.8214   20.6691   32.1471 C   0  0  0  0  0  0  0  0  0  0  0  0
   21.4763   19.2488   37.0420 O   0  0  0  0  0  0  0  0  0  0  0  0
   22.0786   21.4030   36.9730 O   0  0  0  0  0  0  0  0  0  0  0  0
   22.4589   23.0628   30.5282 O   0  0  0  0  0  0  0  0  0  0  0  0
   23.1079   18.8918   30.1655 O   0  0  0  0  0  0  0  0  0  0  0  0
   25.4796   20.1758   35.6063 N   0  0  0  0  0  0  0  0  0  0  0  0
   21.7559   17.4132   42.1705 Cl  0  0  0  0  0  0  0  0  0  0  0  0
  1  3  1  0
  2  5  1  0
  2  8  2  0
  3 32  1  0
 13  4  1  1
  4 29  2  0
  4 30  1  0
  5 15  1  0
  5 34  1  0
  6  7  2  0
  6 11  1  0
  6 31  1  0
  7 12  1  0
  8 16  1  0
  9 10  1  0
  9 11  2  0
 10 12  2  0
 10 13  1  0
 11 14  1  0
 13 17  1  0
 14 32  1  0
 15 19  2  0
 16 19  1  0
 16 21  1  0
 17 18  1  0
 17 33  1  6
 18 21  1  1
 18 22  1  0
 22 20  1  1
 22 23  1  0
 23 24  2  0
 23 25  1  0
 24 27  1  0
 25 26  2  0
 25 33  1  0
 26 28  1  0
 27 28  2  0
M  END
$$$$

     RDKit          3D

 36 40  0  0  0  0  0  0  0  0999 V2000
   21.7883   15.7976   40.4662 C   0  0  0  0  0  0  0  0  0  0  0  0
   21.9324   16.4380   41.6837 C   0  0  0  0  0  0  0  0  0  0  0  0
   21.9169   17.9642   28.2957 C   0  0  0  0  0  0  0  0  0  0  0  0
   22.6867   16.1099   39.4345 C   0  0  0  0  0  0  0  0  0  0  0  0
   22.5221   19.3185   28.0680 C   0  0  0  0  0  0  0  0  0  0  0  0
   22.9181   17.4255   41.8903 C   0  0  0  0  0  0  0  0  0  0  0  0
   22.9965   21.8801   32.6000 C   0  0  0  0  0  0  0  0  0  0  0  0
   23.6780   17.0684   39.6179 C   0  0  0  0  0  0  0  0  0  0  0  0
   23.4672   19.7070   29.1990 C   0  0  0  0  0  0  0  0  0  0  0  0
   23.7812   17.7130   40.8218 C   0  0  0  0  0  0  0  0  0  0  0  0
   24.0395   22.3311   33.4401 C   0  0  0  0  0  0  0  0  0  0  0  0
   24.2243   18.0865   32.9231 C   0  0  0  0  0  0  0  0  0  0  0  0
   24.5016   16.7285   33.0867 C   0  0  0  0  0  0  0  0  0  0  0  0
   24.6161   17.3621   38.4572 C   0  0  0  0  0  0  0  0  0  0  0  0
   24.4602   20.3854   35.6352 C   0  0  0  0  0  0  0  0  0  0  0  0
   24.7774   20.3809   32.1084 C   0  0  2  0  0  0  0  0  0  0  0  0
   25.0612   18.9080   32.1666 C   0  0  0  0  0  0  0  0  0  0  0  0
   25.0972   21.2939   33.3130 C   0  0  2  0  0  0  0  0  0  0  0  0
   25.5328   16.1551   32.3791 C   0  0  0  0  0  0  0  0  0  0  0  0
   26.1346   18.3023   31.4526 C   0  0  0  0  0  0  0  0  0  0  0  0
   26.1830   19.4653   36.9132 C   0  0  0  0  0  0  0  0  0  0  0  0
   26.3740   16.9192   31.5734 C   0  0  0  0  0  0  0  0  0  0  0  0
   26.5844   18.6243   37.9313 C   0  0  0  0  0  0  0  0  0  0  0  0
   26.7834   20.7459   34.8812 C   0  0  0  0  0  0  0  0  0  0  0  0
   27.1193   19.8651   35.9571 C   0  0  1  0  0  0  0  0  0  0  0  0
   27.8935   18.1995   38.0078 C   0  0  0  0  0  0  0  0  0  0  0  0
   28.4436   19.4639   36.0872 C   0  0  0  0  0  0  0  0  0  0  0  0
   28.8077   18.6365   37.0985 C   0  0  0  0  0  0  0  0  0  0  0  0
   21.5226   19.4859   30.9663 O   0  0  0  0  0  0  0  0  0  0  0  0
   22.0275   21.6781   29.9808 O   0  0  0  0  0  0  0  0  0  0  0  0
   23.2583   20.4204   35.4714 O   0  0  0  0  0  0  0  0  0  0  0  0
   24.9308   19.9602   36.8343 O   0  0  0  0  0  0  0  0  0  0  0  0
   25.7111   18.1414   38.9054 O   0  0  0  0  0  0  0  0  0  0  0  0
   23.4612   20.8348   31.7579 N   0  0  0  0  0  0  0  0  0  0  0  0
   25.4237   20.7023   34.6264 N   0  0  0  0  0  0  0  0  0  0  0  0
   22.5333   20.4317   30.5092 S   0  0  0  0  0  0  0  0  0  0  0  0
  1  2  2  0
  1  4  1  0
  2  6  1  0
  3  5  1  0
  4  8  1  0
  5  9  1  0
  6 10  1  0
  7 11  1  0
  7 34  1  0
  8 10  2  0
  8 14  1  0
  9 36  1  0
 11 18  1  0
 12 13  2  0
 12 17  1  0
 13 19  1  0
 14 33  1  0
 15 31  2  0
 15 32  1  0
 15 35  1  0
 16 17  1  1
 16 18  1  0
 16 34  1  0
 17 20  2  0
 18 35  1  1
 19 22  2  0
 20 22  1  0
 21 23  2  0
 21 25  1  0
 21 32  1  0
 23 26  1  0
 23 33  1  0
 25 24  1  1
 24 35  1  0
 25 27  1  0
 26 28  1  0
 27 28  2  0
 29 36  1  0
 30 36  1  0
 34 36  1  0
M  END
$$$$

     RDKit          3D

 41 45  0  0  0  0  0  0  0  0999 V2000
   22.1426   16.4031   42.1792 C   0  0  0  0  0  0  0  0  0  0  0  0
   22.4479   16.0255   39.6803 C   0  0  0  0  0  0  0  0  0  0  0  0
   22.3964   19.7767   32.5899 C   0  0  0  0  0  0  0  0  0  0  0  0
   22.4290   22.2221   30.1444 C   0  0  0  0  0  0  0  0  0  0  0  0
   22.6752   19.7644   33.9546 C   0  0  0  0  0  0  0  0  0  0  0  0
   22.5307   23.2464   29.2480 C   0  0  0  0  0  0  0  0  0  0  0  0
   22.7553   16.7367   40.8130 C   0  0  0  0  0  0  0  0  0  0  0  0
   23.0222   16.2996   38.4529 C   0  0  0  0  0  0  0  0  0  0  0  0
   23.1742   19.6874   30.1231 C   0  0  1  0  0  0  0  0  0  0  0  0
   23.0460   21.0769   29.5529 C   0  0  1  0  0  0  0  0  0  0  0  0
   23.4318   19.6768   31.6652 C   0  0  0  0  0  0  0  0  0  0  0  0
   23.3395   21.4225   28.2130 C   0  0  0  0  0  0  0  0  0  0  0  0
   23.7026   17.7602   40.7328 C   0  0  0  0  0  0  0  0  0  0  0  0
   23.9464   17.3051   38.3678 C   0  0  0  0  0  0  0  0  0  0  0  0
   23.9721   19.6676   34.4480 C   0  0  0  0  0  0  0  0  0  0  0  0
   24.2619   18.0868   39.4997 C   0  0  0  0  0  0  0  0  0  0  0  0
   24.3061   19.8202   35.9398 C   0  0  0  0  0  0  0  0  0  0  0  0
   24.5654   17.5703   37.0652 C   0  0  0  0  0  0  0  0  0  0  0  0
   24.7691   19.6177   32.1670 C   0  0  0  0  0  0  0  0  0  0  0  0
   25.2039   18.8101   36.7579 C   0  0  1  0  0  0  0  0  0  0  0  0
   25.0045   19.6058   33.5489 C   0  0  0  0  0  0  0  0  0  0  0  0
   25.9326   19.5527   31.2834 C   0  0  0  0  0  0  0  0  0  0  0  0
   26.4238   18.2894   30.9191 C   0  0  0  0  0  0  0  0  0  0  0  0
   26.6649   18.9266   36.9298 C   0  0  0  0  0  0  0  0  0  0  0  0
   26.5377   20.6892   30.7692 C   0  0  0  0  0  0  0  0  0  0  0  0
   27.3650   18.6342   38.1323 C   0  0  0  0  0  0  0  0  0  0  0  0
   27.3881   19.2540   35.8262 C   0  0  0  0  0  0  0  0  0  0  0  0
   27.5026   18.1754   30.0666 C   0  0  0  0  0  0  0  0  0  0  0  0
   27.6168   20.5832   29.9094 C   0  0  0  0  0  0  0  0  0  0  0  0
   28.1012   19.3268   29.6009 C   0  0  0  0  0  0  0  0  0  0  0  0
   28.7648   18.7096   38.1096 C   0  0  0  0  0  0  0  0  0  0  0  0
   28.7407   19.3487   35.8349 C   0  0  0  0  0  0  0  0  0  0  0  0
   29.4269   19.0559   36.9622 C   0  0  0  0  0  0  0  0  0  0  0  0
   20.4998   19.7203   29.6455 O   0  0  0  0  0  0  0  0  0  0  0  0
   21.5378   17.6108   30.0775 O   0  0  0  0  0  0  0  0  0  0  0  0
   21.8271   18.6409   27.8993 O   0  0  0  0  0  0  0  0  0  0  0  0
   23.9665   20.9327   36.4848 O   0  0  0  0  0  0  0  0  0  0  0  0
   23.1026   22.7641   28.0387 N   0  0  0  0  0  0  0  0  0  0  0  0
   21.6340   18.8735   29.4200 S   0  0  0  0  0  0  0  0  0  0  0  0
   22.0800   15.0859   42.8853 F   0  0  0  0  0  0  0  0  0  0  0  0
   31.1368   19.1655   36.9281 Cl  0  0  0  0  0  0  0  0  0  0  0  0
  1  7  1  0
  1 40  1  0
  2  7  2  0
  2  8  1  0
  3  5  2  0
  3 11  1  0
  4  6  1  0
 10  4  1  6
  5 15  1  0
  6 38  1  0
  7 13  1  0
  8 14  2  0
  9 10  1  0
  9 11  1  0
  9 39  1  1
 10 12  1  0
 11 19  2  0
 12 38  1  0
 13 16  2  0
 14 16  1  0
 14 18  1  0
 15 17  1  0
 15 21  2  0
 17 20  1  0
 17 37  2  0
 20 18  1  6
 19 21  1  0
 19 22  1  0
 20 24  1  0
 22 23  2  0
 22 25  1  0
 23 28  1  0
 24 26  2  0
 24 27  1  0
 25 29  2  0
 26 31  1  0
 27 32  2  0
 28 30  2  0
 29 30  1  0
 31 33  2  0
 32 33  1  0
 33 41  1  0
 34 39  1  0
 35 39  1  0
 36 39  1  0
M  END
$$$$

     RDKit          3D

 39 43  0  0  0  0  0  0  0  0999 V2000
   20.3316   25.5425   31.6741 C   0  0  0  0  0  0  0  0  0  0  0  0
   20.3130   26.7234   33.8168 C   0  0  0  0  0  0  0  0  0  0  0  0
   21.4083   16.8963   42.0521 C   0  0  0  0  0  0  0  0  0  0  0  0
   21.4552   24.6517   32.0335 C   0  0  0  0  0  0  0  0  0  0  0  0
   21.9950   16.1732   39.7956 C   0  0  0  0  0  0  0  0  0  0  0  0
   22.3022   16.9657   40.8997 C   0  0  0  0  0  0  0  0  0  0  0  0
   22.2430   22.4407   31.6193 C   0  0  0  0  0  0  0  0  0  0  0  0
   22.6456   21.4545   30.6441 C   0  0  0  0  0  0  0  0  0  0  0  0
   22.8349   16.1984   38.6744 C   0  0  0  0  0  0  0  0  0  0  0  0
   22.8646   22.5335   32.8721 C   0  0  0  0  0  0  0  0  0  0  0  0
   23.4349   17.7890   40.9007 C   0  0  0  0  0  0  0  0  0  0  0  0
   23.9395   17.0316   38.6555 C   0  0  0  0  0  0  0  0  0  0  0  0
   23.9305   20.7456   30.8238 C   0  0  0  0  0  0  0  0  0  0  0  0
   24.1053   21.8643   32.9811 C   0  0  0  0  0  0  0  0  0  0  0  0
   24.2258   17.8337   39.7525 C   0  0  0  0  0  0  0  0  0  0  0  0
   24.2490   19.3686   35.8165 C   0  0  0  0  0  0  0  0  0  0  0  0
   24.6016   21.0325   32.0237 C   0  0  0  0  0  0  0  0  0  0  0  0
   24.8189   17.1513   37.4306 C   0  0  0  0  0  0  0  0  0  0  0  0
   25.0779   16.4654   32.9275 C   0  0  0  0  0  0  0  0  0  0  0  0
   25.2856   17.8489   32.8083 C   0  0  0  0  0  0  0  0  0  0  0  0
   25.6628   15.5239   32.0826 C   0  0  0  0  0  0  0  0  0  0  0  0
   25.6920   18.4035   37.4659 C   0  0  0  0  0  0  0  0  0  0  0  0
   25.7228   19.1575   36.1506 C   0  0  2  0  0  0  0  0  0  0  0  0
   25.9420   21.0629   33.7637 C   0  0  0  0  0  0  0  0  0  0  0  0
   26.2253   18.2797   31.8519 C   0  0  0  0  0  0  0  0  0  0  0  0
   26.5697   15.9674   31.1455 C   0  0  0  0  0  0  0  0  0  0  0  0
   26.5276   19.6519   31.6988 C   0  0  0  0  0  0  0  0  0  0  0  0
   26.5276   20.4514   36.1675 C   0  0  0  0  0  0  0  0  0  0  0  0
   26.8464   17.3516   30.9830 C   0  0  0  0  0  0  0  0  0  0  0  0
   27.0058   20.7776   34.7361 C   0  0  0  0  0  0  0  0  0  0  0  0
   27.4437   20.0639   30.7178 C   0  0  0  0  0  0  0  0  0  0  0  0
   27.7671   17.7612   30.0440 C   0  0  0  0  0  0  0  0  0  0  0  0
   28.0323   19.1101   29.8903 C   0  0  0  0  0  0  0  0  0  0  0  0
   24.7234   22.7075   35.0656 O   0  0  0  0  0  0  0  0  0  0  0  0
   19.9856   26.6522   32.4817 N   0  0  0  0  0  0  0  0  0  0  0  0
   20.4243   15.9857   42.0038 N   0  0  0  0  0  0  0  0  0  0  0  0
   21.2000   23.2944   31.4488 N   0  0  0  0  0  0  0  0  0  0  0  0
   24.9347   21.8860   34.0224 N   0  0  0  0  0  0  0  0  0  0  0  0
   25.7646   20.5736   32.4942 N   0  0  0  0  0  0  0  0  0  0  0  0
  1  4  1  0
  1 35  1  0
  2 35  1  0
  3  6  2  3
  3 36  1  0
  4 37  1  0
  5  6  1  0
  5  9  1  0
  6 11  1  0
  7  8  2  0
  7 10  1  0
  7 37  1  0
  8 13  1  0
  9 12  2  0
 10 14  1  0
 11 15  2  0
 12 15  1  0
 12 18  1  0
 13 17  1  0
 14 17  2  0
 14 38  1  0
 23 16  1  1
 17 39  1  0
 18 22  1  0
 19 20  2  0
 19 21  1  0
 20 25  1  0
 21 26  2  0
 22 23  1  0
 23 28  1  0
 24 30  1  0
 24 38  1  0
 24 39  1  0
 25 27  2  0
 25 29  1  0
 26 29  1  0
 27 31  1  0
 27 39  1  0
 28 30  1  0
 29 32  2  0
 31 33  2  0
 32 33  1  0
 34 38  1  0
M  END
$$$$

     RDKit          3D

 33 38  0  0  0  0  0  0  0  0999 V2000
   21.3453   15.9344   40.8441 C   0  0  0  0  0  0  0  0  0  0  0  0
   21.5091   16.5862   42.0338 C   0  0  0  0  0  0  0  0  0  0  0  0
   22.1828   16.1910   39.7560 C   0  0  0  0  0  0  0  0  0  0  0  0
   22.2520   19.8388   36.5126 C   0  0  0  0  0  0  0  0  0  0  0  0
   22.5312   17.4681   42.1817 C   0  0  0  0  0  0  0  0  0  0  0  0
   22.6563   18.5422   29.1671 C   0  0  0  0  0  0  0  0  0  0  0  0
   22.4602   19.2742   27.9807 C   0  0  0  0  0  0  0  0  0  0  0  0
   22.6815   20.6335   27.9334 C   0  0  0  0  0  0  0  0  0  0  0  0
   23.0973   19.2204   30.2799 C   0  0  0  0  0  0  0  0  0  0  0  0
   23.0578   21.2931   29.1126 C   0  0  0  0  0  0  0  0  0  0  0  0
   23.2160   17.0940   39.9334 C   0  0  0  0  0  0  0  0  0  0  0  0
   23.3696   17.7446   41.1337 C   0  0  0  0  0  0  0  0  0  0  0  0
   23.4031   18.4868   31.5049 C   0  0  0  0  0  0  0  0  0  0  0  0
   23.3101   19.3051   35.7215 C   0  0  2  0  0  0  0  0  0  0  0  0
   23.2606   20.6049   30.2671 C   0  0  0  0  0  0  0  0  0  0  0  0
   23.5342   18.4184   37.8054 C   0  0  1  0  0  0  0  0  0  0  0  0
   23.5530   19.4540   34.2897 C   0  0  1  0  0  0  0  0  0  0  0  0
   23.5939   21.3017   31.4787 C   0  0  0  0  0  0  0  0  0  0  0  0
   23.9355   20.7656   33.7995 C   0  0  0  0  0  0  0  0  0  0  0  0
   24.1281   17.4532   38.8070 C   0  0  0  0  0  0  0  0  0  0  0  0
   24.1183   18.5034   36.5792 C   0  0  0  0  0  0  0  0  0  0  0  0
   24.5844   18.5424   33.6531 C   0  0  0  0  0  0  0  0  0  0  0  0
   24.5983   19.1196   32.2187 C   0  0  1  0  0  0  0  0  0  0  0  0
   25.8338   18.8483   31.3762 C   0  0  0  0  0  0  0  0  0  0  0  0
   26.1527   17.5431   30.9485 C   0  0  0  0  0  0  0  0  0  0  0  0
   26.6472   19.8574   30.8176 C   0  0  0  0  0  0  0  0  0  0  0  0
   27.2265   17.2808   30.0832 C   0  0  0  0  0  0  0  0  0  0  0  0
   27.6832   19.6142   29.9330 C   0  0  0  0  0  0  0  0  0  0  0  0
   27.9541   18.3229   29.5702 C   0  0  0  0  0  0  0  0  0  0  0  0
   23.3048   21.7884   34.1831 O   0  0  0  0  0  0  0  0  0  0  0  0
   22.4275   19.1859   37.8377 N   0  0  0  0  0  0  0  0  0  0  0  0
   24.4192   20.5591   32.4744 N   0  0  0  0  0  0  0  0  0  0  0  0
   22.0320   18.5880   26.9013 F   0  0  0  0  0  0  0  0  0  0  0  0
  1  2  2  0
  1  3  1  0
  2  5  1  0
  3 11  2  0
 14  4  1  6
  4 31  1  0
  5 12  2  0
  6  7  2  0
  6  9  1  0
  7  8  1  0
  7 33  1  0
  8 10  2  0
  9 13  1  0
  9 15  2  0
 10 15  1  0
 11 12  1  0
 11 20  1  0
 13 23  1  0
 14 17  1  0
 14 21  1  0
 15 18  1  0
 16 20  1  6
 16 21  1  0
 16 31  1  0
 17 19  1  0
 17 22  1  1
 18 32  1  0
 19 30  2  0
 19 32  1  0
 22 23  1  0
 23 24  1  6
 23 32  1  0
 24 25  2  0
 24 26  1  0
 25 27  1  0
 26 28  2  0
 27 29  2  0
 28 29  1  0
M  END
$$$$

     RDKit          3D

 24 27  0  0  0  0  0  0  0  0999 V2000
   21.7026   19.4138   30.8934 C   0  0  0  0  0  0  0  0  0  0  0  0
   22.2067   18.7268   28.5991 C   0  0  0  0  0  0  0  0  0  0  0  0
   22.0508   19.6104   36.4325 C   0  0  0  0  0  0  0  0  0  0  0  0
   22.1207   19.7203   34.9887 C   0  0  0  0  0  0  0  0  0  0  0  0
   22.1809   20.0146   32.1867 C   0  0  0  0  0  0  0  0  0  0  0  0
   22.8914   18.5071   38.4630 C   0  0  0  0  0  0  0  0  0  0  0  0
   22.8581   19.1697   29.9136 C   0  0  2  0  0  0  0  0  0  0  0  0
   23.0274   18.7312   37.0845 C   0  0  0  0  0  0  0  0  0  0  0  0
   23.1562   19.1039   32.8304 C   0  0  2  0  0  0  0  0  0  0  0  0
   23.2139   19.1219   34.2661 C   0  0  0  0  0  0  0  0  0  0  0  0
   23.5338   17.4818   40.6110 C   0  0  0  0  0  0  0  0  0  0  0  0
   23.7640   17.7015   39.1425 C   0  0  0  0  0  0  0  0  0  0  0  0
   23.8956   18.2172   30.5754 C   0  0  0  0  0  0  0  0  0  0  0  0
   24.0681   18.0924   36.3654 C   0  0  0  0  0  0  0  0  0  0  0  0
   24.2069   18.3447   34.9356 C   0  0  0  0  0  0  0  0  0  0  0  0
   24.3658   18.8640   31.9555 C   0  0  1  0  0  0  0  0  0  0  0  0
   24.7635   17.0155   38.4528 C   0  0  0  0  0  0  0  0  0  0  0  0
   24.9445   17.2086   37.0839 C   0  0  0  0  0  0  0  0  0  0  0  0
   25.0960   20.2081   31.6705 C   0  0  0  0  0  0  0  0  0  0  0  0
   25.3670   17.9118   32.6451 C   0  0  0  0  0  0  0  0  0  0  0  0
   25.3428   17.7021   34.1613 C   0  0  0  0  0  0  0  0  0  0  0  0
   21.7975   17.5940   28.3581 O   0  0  0  0  0  0  0  0  0  0  0  0
   21.9472   19.6797   27.7519 O   0  0  0  0  0  0  0  0  0  0  0  0
   23.7121   17.9225   41.6424 O   0  0  0  0  0  0  0  0  0  0  0  0
  1  5  1  0
  1  7  1  0
  7  2  1  6
  2 22  2  0
  2 23  1  0
  3  4  2  0
  3  8  1  0
  4 10  1  0
  9  5  1  6
  6  8  1  0
  6 12  2  0
  7 13  1  0
  8 14  2  0
  9 10  1  0
  9 16  1  0
 10 15  2  0
 11 12  1  0
 11 24  2  0
 12 17  1  0
 13 16  1  0
 14 15  1  0
 14 18  1  0
 15 21  1  0
 16 19  1  6
 16 20  1  0
 17 18  2  0
 20 21  2  0
M  END
$$$$

     RDKit          3D

 37 41  0  0  0  0  0  0  0  0999 V2000
   20.9546   17.4109   29.1989 C   0  0  0  0  0  0  0  0  0  0  0  0
   21.2164   19.7983   30.1951 C   0  0  0  0  0  0  0  0  0  0  0  0
   21.8530   15.9862   40.0408 C   0  0  0  0  0  0  0  0  0  0  0  0
   21.8085   18.6493   29.3291 C   0  0  0  0  0  0  0  0  0  0  0  0
   21.7406   23.3115   30.5867 C   0  0  0  0  0  0  0  0  0  0  0  0
   21.9201   24.3819   31.4337 C   0  0  0  0  0  0  0  0  0  0  0  0
   22.1507   16.5893   41.2521 C   0  0  0  0  0  0  0  0  0  0  0  0
   22.2168   22.0554   30.9430 C   0  0  0  0  0  0  0  0  0  0  0  0
   22.5535   16.2529   38.9103 C   0  0  0  0  0  0  0  0  0  0  0  0
   22.5381   24.2466   32.6505 C   0  0  0  0  0  0  0  0  0  0  0  0
   22.9021   21.9269   32.1863 C   0  0  0  0  0  0  0  0  0  0  0  0
   23.1373   18.2318   29.9555 C   0  0  0  0  0  0  0  0  0  0  0  0
   23.0198   23.0248   32.9980 C   0  0  0  0  0  0  0  0  0  0  0  0
   23.2217   17.4608   41.2981 C   0  0  0  0  0  0  0  0  0  0  0  0
   23.6012   17.1254   38.9563 C   0  0  0  0  0  0  0  0  0  0  0  0
   23.5098   20.7802   32.7295 C   0  0  0  0  0  0  0  0  0  0  0  0
   24.0116   17.7499   40.1154 C   0  0  0  0  0  0  0  0  0  0  0  0
   24.1861   19.0206   35.7027 C   0  0  0  0  0  0  0  0  0  0  0  0
   24.1178   19.3940   34.2696 C   0  0  2  0  0  0  0  0  0  0  0  0
   24.5786   20.1257   32.1861 C   0  0  0  0  0  0  0  0  0  0  0  0
   24.8772   19.0980   33.1477 C   0  0  2  0  0  0  0  0  0  0  0  0
   25.1299   16.5943   33.3400 C   0  0  0  0  0  0  0  0  0  0  0  0
   25.3388   17.8114   32.6769 C   0  0  0  0  0  0  0  0  0  0  0  0
   25.3876   17.9492   37.4948 C   0  0  0  0  0  0  0  0  0  0  0  0
   25.4547   18.7349   36.3590 C   0  0  0  0  0  0  0  0  0  0  0  0
   25.5529   15.6350   32.4249 C   0  0  0  0  0  0  0  0  0  0  0  0
   26.1022   16.3180   31.3092 C   0  0  0  0  0  0  0  0  0  0  0  0
   26.4978   17.7385   38.2721 C   0  0  0  0  0  0  0  0  0  0  0  0
   26.7069   19.2551   35.9743 C   0  0  0  0  0  0  0  0  0  0  0  0
   27.7292   18.2710   37.9189 C   0  0  0  0  0  0  0  0  0  0  0  0
   27.8088   19.0162   36.7773 C   0  0  0  0  0  0  0  0  0  0  0  0
   21.9260   19.0984   28.0212 O   0  0  0  0  0  0  0  0  0  0  0  0
   24.2045   17.3672   37.7731 O   0  0  0  0  0  0  0  0  0  0  0  0
   25.2430   20.5515   31.1478 O   0  0  0  0  0  0  0  0  0  0  0  0
   22.0953   20.9615   30.0375 N   0  0  0  0  0  0  0  0  0  0  0  0
   23.2142   20.3050   33.9361 N   0  0  0  0  0  0  0  0  0  0  0  0
   25.9733   17.6451   31.5331 N   0  0  0  0  0  0  0  0  0  0  0  0
  1  4  1  0
  2  4  1  0
  2 35  1  0
  3  7  2  0
  3  9  1  0
  4 12  1  0
  4 32  1  0
  5  6  2  0
  5  8  1  0
  6 10  1  0
  7 14  1  0
  8 11  2  0
  8 35  1  0
  9 15  2  0
 10 13  2  0
 11 13  1  0
 11 16  1  0
 14 17  2  0
 15 17  1  0
 15 33  1  0
 16 20  2  0
 16 36  1  0
 19 18  1  1
 18 25  1  0
 19 21  1  0
 19 36  1  0
 20 21  1  0
 20 34  1  0
 21 23  1  6
 22 23  1  0
 22 26  1  0
 23 37  1  0
 24 25  1  0
 24 28  2  0
 24 33  1  0
 25 29  2  0
 26 27  1  0
 27 37  1  0
 28 30  1  0
 29 31  1  0
 30 31  2  0
M  END
$$$$

     RDKit          3D

 39 46  0  0  0  0  0  0  0  0999 V2000
   21.0029   18.5972   30.2972 C   0  0  0  0  0  0  0  0  0  0  0  0
   21.8668   22.8805   30.9811 C   0  0  0  0  0  0  0  0  0  0  0  0
   22.1995   17.8737   30.1895 C   0  0  0  0  0  0  0  0  0  0  0  0
   22.1381   20.4353   31.2417 C   0  0  0  0  0  0  0  0  0  0  0  0
   21.9697   24.1996   31.4101 C   0  0  0  0  0  0  0  0  0  0  0  0
   22.2149   21.7936   31.8049 C   0  0  0  0  0  0  0  0  0  0  0  0
   22.4326   24.4611   32.6749 C   0  0  0  0  0  0  0  0  0  0  0  0
   22.6235   22.0667   33.1414 C   0  0  0  0  0  0  0  0  0  0  0  0
   22.9059   21.0819   34.1401 C   0  0  0  0  0  0  0  0  0  0  0  0
   22.7787   23.4369   33.5587 C   0  0  0  0  0  0  0  0  0  0  0  0
   23.0759   17.3009   38.5341 C   0  0  0  0  0  0  0  0  0  0  0  0
   23.3552   18.4966   30.6707 C   0  0  0  0  0  0  0  0  0  0  0  0
   23.2868   18.4795   37.8162 C   0  0  0  0  0  0  0  0  0  0  0  0
   23.4030   20.4989   36.5520 C   0  0  2  0  0  0  0  0  0  0  0  0
   23.2904   21.4841   35.4259 C   0  0  0  0  0  0  0  0  0  0  0  0
   23.2226   23.7832   34.8257 C   0  0  0  0  0  0  0  0  0  0  0  0
   23.4743   22.8105   35.7226 C   0  0  0  0  0  0  0  0  0  0  0  0
   24.1777   16.5447   38.8929 C   0  0  0  0  0  0  0  0  0  0  0  0
   24.7055   17.8381   30.7417 C   0  0  0  0  0  0  0  0  0  0  0  0
   24.5892   18.9159   37.5177 C   0  0  0  0  0  0  0  0  0  0  0  0
   25.0766   17.4325   33.1930 C   0  0  0  0  0  0  0  0  0  0  0  0
   25.3522   18.1891   32.0833 C   0  0  0  0  0  0  0  0  0  0  0  0
   25.4809   16.9309   38.5555 C   0  0  0  0  0  0  0  0  0  0  0  0
   25.6322   17.6746   34.4431 C   0  0  0  0  0  0  0  0  0  0  0  0
   25.6953   18.0807   37.7748 C   0  0  0  0  0  0  0  0  0  0  0  0
   26.0838   19.3537   32.3503 C   0  0  0  0  0  0  0  0  0  0  0  0
   26.5301   18.7051   34.6737 C   0  0  0  0  0  0  0  0  0  0  0  0
   26.7544   19.6116   33.6028 C   0  0  0  0  0  0  0  0  0  0  0  0
   27.0398   18.4328   37.3182 C   0  0  0  0  0  0  0  0  0  0  0  0
   27.3491   18.8827   36.0078 C   0  0  0  0  0  0  0  0  0  0  0  0
   28.1394   18.2540   38.2444 C   0  0  0  0  0  0  0  0  0  0  0  0
   28.6248   19.4256   35.7587 C   0  0  0  0  0  0  0  0  0  0  0  0
   29.4366   18.6326   38.0598 C   0  0  0  0  0  0  0  0  0  0  0  0
   29.6323   19.2491   36.7904 C   0  0  0  0  0  0  0  0  0  0  0  0
   20.9948   19.8688   30.8109 N   0  0  0  0  0  0  0  0  0  0  0  0
   23.3013   19.7824   31.1683 N   0  0  0  0  0  0  0  0  0  0  0  0
   24.6634   20.1298   36.8912 N   0  0  0  0  0  0  0  0  0  0  0  0
   22.1645   19.5525   37.1927 S   0  0  0  0  0  0  0  0  0  0  0  0
   23.9530   15.4567   39.6572 F   0  0  0  0  0  0  0  0  0  0  0  0
  1  3  2  0
  1 35  1  0
  2  5  2  0
  2  6  1  0
  3 12  1  0
  4  6  1  0
  4 35  2  0
  4 36  1  0
  5  7  1  0
  6  8  2  0
  7 10  2  0
  8  9  1  0
  8 10  1  0
  9 15  2  0
 10 16  1  0
 11 13  1  0
 11 18  2  0
 12 19  1  0
 12 36  2  0
 13 20  1  0
 13 38  1  0
 14 15  1  0
 14 37  1  0
 14 38  1  6
 15 17  1  0
 16 17  2  0
 18 23  1  0
 18 39  1  0
 19 22  1  0
 20 25  2  0
 20 37  1  0
 21 22  2  0
 21 24  1  0
 22 26  1  0
 23 25  1  0
 24 27  2  0
 25 29  1  0
 26 28  2  0
 27 28  1  0
 27 30  1  0
 29 30  1  0
 29 31  2  0
 30 32  2  0
 31 33  1  0
 32 34  1  0
 33 34  1  0
M  END
$$$$

     RDKit          3D

 44 48  0  0  0  0  0  0  0  0999 V2000
   21.6179   16.0114   40.6089 C   0  0  0  0  0  0  0  0  0  0  0  0
   21.7840   16.8059   41.7058 C   0  0  0  0  0  0  0  0  0  0  0  0
   22.3151   19.9819   36.2884 C   0  0  0  0  0  0  0  0  0  0  0  0
   22.5156   16.0739   39.5544 C   0  0  0  0  0  0  0  0  0  0  0  0
   22.5281   23.3504   32.4401 C   0  0  0  0  0  0  0  0  0  0  0  0
   22.9107   17.6260   41.8156 C   0  0  0  0  0  0  0  0  0  0  0  0
   22.8791   20.8659   32.6960 C   0  0  0  0  0  0  0  0  0  0  0  0
   23.1977   21.8777   35.6111 C   0  0  0  0  0  0  0  0  0  0  0  0
   23.3989   19.4334   36.4328 C   0  0  2  0  0  0  0  0  0  0  0  0
   23.6496   16.8869   39.6341 C   0  0  0  0  0  0  0  0  0  0  0  0
   23.4760   22.2030   32.9171 C   0  0  2  0  0  0  0  0  0  0  0  0
   23.8138   17.6890   40.7361 C   0  0  0  0  0  0  0  0  0  0  0  0
   24.1086   18.0231   32.8626 C   0  0  0  0  0  0  0  0  0  0  0  0
   24.1103   22.4216   34.2484 C   0  0  0  0  0  0  0  0  0  0  0  0
   24.4583   16.8772   33.4467 C   0  0  0  0  0  0  0  0  0  0  0  0
   24.6717   16.8528   38.5394 C   0  0  0  0  0  0  0  0  0  0  0  0
   24.5302   19.7698   31.2247 C   0  0  0  0  0  0  0  0  0  0  0  0
   25.0016   18.6344   31.8945 C   0  0  0  0  0  0  0  0  0  0  0  0
   25.3857   20.3337   30.2583 C   0  0  0  0  0  0  0  0  0  0  0  0
   25.5768   16.1789   33.0196 C   0  0  0  0  0  0  0  0  0  0  0  0
   25.6994   19.0607   36.9418 C   0  0  0  0  0  0  0  0  0  0  0  0
   26.1758   17.9560   31.5397 C   0  0  0  0  0  0  0  0  0  0  0  0
   26.4563   16.7266   32.1146 C   0  0  0  0  0  0  0  0  0  0  0  0
   26.3383   19.6832   35.8627 C   0  0  0  0  0  0  0  0  0  0  0  0
   26.4619   18.3285   37.8081 C   0  0  0  0  0  0  0  0  0  0  0  0
   26.7136   19.9094   30.1699 C   0  0  1  0  0  0  0  0  0  0  0  0
   27.0854   18.6368   30.6487 C   0  0  1  0  0  0  0  0  0  0  0  0
   27.5704   20.6600   29.4718 C   0  0  0  0  0  0  0  0  0  0  0  0
   27.8385   18.3249   37.7145 C   0  0  0  0  0  0  0  0  0  0  0  0
   27.7403   19.7271   35.7126 C   0  0  0  0  0  0  0  0  0  0  0  0
   28.3883   18.1684   30.3653 C   0  0  0  0  0  0  0  0  0  0  0  0
   28.4788   19.0350   36.6942 C   0  0  0  0  0  0  0  0  0  0  0  0
   28.8058   20.2465   29.2140 C   0  0  0  0  0  0  0  0  0  0  0  0
   29.2480   19.0222   29.6510 C   0  0  0  0  0  0  0  0  0  0  0  0
   30.0059   18.9784   36.6360 C   0  0  0  0  0  0  0  0  0  0  0  0
   20.6698   20.0624   30.6860 O   0  0  0  0  0  0  0  0  0  0  0  0
   22.1292   21.6320   29.5945 O   0  0  0  0  0  0  0  0  0  0  0  0
   24.3801   19.1422   37.1879 O   0  0  0  0  0  0  0  0  0  0  0  0
   24.5679   15.9405   37.6515 O   0  0  0  0  0  0  0  0  0  0  0  0
   25.8983   17.4344   38.7095 O   0  0  0  0  0  0  0  0  0  0  0  0
   22.4500   19.0817   29.3056 N   0  0  0  0  0  0  0  0  0  0  0  0
   23.2229   20.1911   31.5102 N   0  0  0  0  0  0  0  0  0  0  0  0
   23.5511   20.7696   36.1706 N   0  0  0  0  0  0  0  0  0  0  0  0
   22.0306   20.2792   30.2685 S   0  0  0  0  0  0  0  0  0  0  0  0
  1  2  2  0
  1  4  1  0
  2  6  1  0
  9  3  1  1
  4 10  1  0
 11  5  1  1
  6 12  1  0
  7 11  1  0
  7 42  1  0
  8 14  1  0
  8 43  1  0
  9 38  1  0
  9 43  1  0
 10 12  2  0
 10 16  1  0
 11 14  1  0
 13 15  2  0
 13 18  1  0
 15 20  1  0
 16 39  2  0
 16 40  1  0
 17 18  1  0
 17 19  2  0
 17 42  1  0
 18 22  2  0
 26 19  1  6
 20 23  2  0
 21 24  2  0
 21 25  1  0
 21 38  1  0
 22 23  1  0
 22 27  1  0
 24 30  1  0
 25 29  2  0
 25 40  1  0
 26 27  1  0
 26 28  1  0
 27 31  1  1
 28 33  2  0
 29 32  1  0
 30 32  2  0
 31 34  2  0
 32 35  1  0
 33 34  1  0
 36 44  1  0
 37 44  1  0
 41 44  1  0
 42 44  1  0
M  END
$$$$

     RDKit          3D

 34 37  0  0  0  0  0  0  0  0999 V2000
   21.8309   15.7854   41.5419 C   0  0  0  0  0  0  0  0  0  0  0  0
   22.0153   16.9670   40.7233 C   0  0  2  0  0  0  0  0  0  0  0  0
   22.3710   16.6937   39.2577 C   0  0  1  0  0  0  0  0  0  0  0  0
   22.4022   18.0854   38.5120 C   0  0  0  0  0  0  0  0  0  0  0  0
   22.2215   18.6353   28.3791 C   0  0  1  0  0  0  0  0  0  0  0  0
   22.4263   18.7446   29.7645 C   0  0  0  0  0  0  0  0  0  0  0  0
   22.6539   19.6745   27.5084 C   0  0  0  0  0  0  0  0  0  0  0  0
   22.8978   19.2958   35.9462 C   0  0  0  0  0  0  0  0  0  0  0  0
   22.9752   19.5331   34.6106 C   0  0  0  0  0  0  0  0  0  0  0  0
   23.0118   19.9015   30.2946 C   0  0  0  0  0  0  0  0  0  0  0  0
   23.1709   20.0564   31.8005 C   0  0  0  0  0  0  0  0  0  0  0  0
   23.2456   20.8047   28.0531 C   0  0  0  0  0  0  0  0  0  0  0  0
   23.4688   20.9323   29.4304 C   0  0  0  0  0  0  0  0  0  0  0  0
   23.7795   16.0908   39.1159 C   0  0  0  0  0  0  0  0  0  0  0  0
   23.8513   18.3922   38.1469 C   0  0  2  0  0  0  0  0  0  0  0  0
   24.0066   18.8848   36.7062 C   0  0  1  0  0  0  0  0  0  0  0  0
   24.1847   19.3228   33.9195 C   0  0  0  0  0  0  0  0  0  0  0  0
   24.6571   17.1032   38.3981 C   0  0  0  0  0  0  0  0  0  0  0  0
   25.3815   17.4183   31.5652 C   0  0  0  0  0  0  0  0  0  0  0  0
   25.2587   18.7902   31.7064 C   0  0  0  0  0  0  0  0  0  0  0  0
   25.2618   18.8724   36.0751 C   0  0  0  0  0  0  0  0  0  0  0  0
   25.3484   19.0375   34.6864 C   0  0  0  0  0  0  0  0  0  0  0  0
   26.1977   19.6268   31.0867 C   0  0  0  0  0  0  0  0  0  0  0  0
   26.4150   16.9147   30.8015 C   0  0  0  0  0  0  0  0  0  0  0  0
   27.3262   17.7149   30.1779 C   0  0  0  0  0  0  0  0  0  0  0  0
   27.2235   19.0770   30.3410 C   0  0  0  0  0  0  0  0  0  0  0  0
   27.5683   19.3361   36.7442 C   0  0  0  0  0  0  0  0  0  0  0  0
   28.6595   18.7679   37.6608 C   0  0  0  0  0  0  0  0  0  0  0  0
   29.9926   18.7229   36.8777 C   0  0  0  0  0  0  0  0  0  0  0  0
   22.4233   20.8146   32.4053 O   0  0  0  0  0  0  0  0  0  0  0  0
   26.3593   18.6210   36.9140 O   0  0  0  0  0  0  0  0  0  0  0  0
   22.9443   17.8833   41.4259 N   0  0  0  0  0  0  0  0  0  0  0  0
   24.1988   19.3665   32.4618 N   0  0  0  0  0  0  0  0  0  0  0  0
   21.5708   17.2763   27.6783 Cl  0  0  0  0  0  0  0  0  0  0  0  0
  2  1  1  1
  2  3  1  0
  2 32  1  0
  3  4  1  6
  3 14  1  0
 15  4  1  6
  5  6  1  0
  5  7  1  0
  5 34  1  6
  6 10  2  0
  7 12  2  0
  8  9  2  0
 16  8  1  6
  9 17  1  0
 10 11  1  0
 10 13  1  0
 11 30  2  0
 11 33  1  0
 12 13  1  0
 14 18  1  0
 15 16  1  0
 15 18  1  0
 16 21  1  0
 17 22  1  0
 17 33  1  0
 19 20  2  0
 19 24  1  0
 20 23  1  0
 20 33  1  0
 21 22  2  0
 21 31  1  0
 23 26  2  0
 24 25  2  0
 25 26  1  0
 27 28  1  0
 27 31  1  0
 28 29  1  0
M  END
$$$$

     RDKit          3D

 26 28  0  0  0  0  0  0  0  0999 V2000
   21.1078   17.9405   30.0206 C   0  0  0  0  0  0  0  0  0  0  0  0
   21.4698   19.3270   29.6547 C   0  0  0  0  0  0  0  0  0  0  0  0
   22.4370   19.5845   35.4640 C   0  0  0  0  0  0  0  0  0  0  0  0
   22.6803   19.7974   30.4214 C   0  0  2  0  0  0  0  0  0  0  0  0
   22.7103   19.3732   36.8128 C   0  0  0  0  0  0  0  0  0  0  0  0
   23.0313   19.2752   33.0776 C   0  0  0  0  0  0  0  0  0  0  0  0
   23.4052   17.2696   39.1172 C   0  0  0  0  0  0  0  0  0  0  0  0
   23.3822   19.2402   34.4509 C   0  0  0  0  0  0  0  0  0  0  0  0
   23.5184   20.7999   29.6649 C   0  0  0  0  0  0  0  0  0  0  0  0
   23.9060   18.7838   32.1155 C   0  0  0  0  0  0  0  0  0  0  0  0
   23.9476   18.7860   37.1793 C   0  0  0  0  0  0  0  0  0  0  0  0
   23.9909   16.1666   39.0423 C   0  0  0  0  0  0  0  0  0  0  0  0
   24.6475   18.7155   34.8073 C   0  0  0  0  0  0  0  0  0  0  0  0
   25.1296   18.2798   32.4328 C   0  0  0  0  0  0  0  0  0  0  0  0
   24.9951   18.6874   36.1977 C   0  0  1  0  0  0  0  0  0  0  0  0
   25.5052   18.2363   33.7623 C   0  0  0  0  0  0  0  0  0  0  0  0
   26.4344   18.6781   36.6537 C   0  0  0  0  0  0  0  0  0  0  0  0
   26.9017   18.3040   37.8993 C   0  0  0  0  0  0  0  0  0  0  0  0
   27.3626   19.1336   35.6984 C   0  0  0  0  0  0  0  0  0  0  0  0
   28.2750   18.3212   38.1358 C   0  0  0  0  0  0  0  0  0  0  0  0
   28.6237   19.0623   35.9924 C   0  0  0  0  0  0  0  0  0  0  0  0
   29.1256   18.7132   37.0956 C   0  0  0  0  0  0  0  0  0  0  0  0
   20.7393   20.2126   29.2288 O   0  0  0  0  0  0  0  0  0  0  0  0
   21.8356   19.6821   37.7902 O   0  0  0  0  0  0  0  0  0  0  0  0
   23.4923   18.7308   30.8436 O   0  0  0  0  0  0  0  0  0  0  0  0
   24.0460   18.3510   38.4477 O   0  0  0  0  0  0  0  0  0  0  0  0
  1  2  1  0
  2  4  1  0
  2 23  2  0
  3  5  1  0
  3  8  1  0
  4  9  1  6
  4 25  1  0
  5 11  2  0
  5 24  1  0
  6  8  2  0
  6 10  1  0
  7 12  2  0
  7 26  1  0
  8 13  1  0
 10 14  2  0
 10 25  1  0
 11 15  1  0
 11 26  1  0
 13 15  1  0
 13 16  2  0
 14 16  1  0
 15 17  1  6
 17 18  2  0
 17 19  1  0
 18 20  1  0
 19 21  2  0
 20 22  2  0
 21 22  1  0
M  END
$$$$

     RDKit          3D

 44 49  0  0  0  0  0  0  0  0999 V2000
   21.4481   15.7998   40.6253 C   0  0  0  0  0  0  0  0  0  0  0  0
   21.3401   17.8272   29.6185 C   0  0  0  0  0  0  0  0  0  0  0  0
   21.5699   18.4861   30.8570 C   0  0  0  0  0  0  0  0  0  0  0  0
   21.8923   16.5323   41.7089 C   0  0  0  0  0  0  0  0  0  0  0  0
   21.9071   18.3950   28.4308 C   0  0  0  0  0  0  0  0  0  0  0  0
   21.8416   22.7530   31.2245 C   0  0  0  0  0  0  0  0  0  0  0  0
   21.8674   24.1462   31.3795 C   0  0  0  0  0  0  0  0  0  0  0  0
   22.0236   15.9496   39.3813 C   0  0  0  0  0  0  0  0  0  0  0  0
   22.3440   19.6656   30.9097 C   0  0  0  0  0  0  0  0  0  0  0  0
   22.3921   20.4483   32.1910 C   0  0  2  0  0  0  0  0  0  0  0  0
   22.4391   21.9328   32.1705 C   0  0  0  0  0  0  0  0  0  0  0  0
   22.4074   24.7448   32.4978 C   0  0  0  0  0  0  0  0  0  0  0  0
   22.9291   17.4676   41.5341 C   0  0  0  0  0  0  0  0  0  0  0  0
   22.7496   19.4722   28.5340 C   0  0  0  0  0  0  0  0  0  0  0  0
   22.7259   19.8447   33.4882 C   0  0  0  0  0  0  0  0  0  0  0  0
   22.9531   20.1106   29.7380 C   0  0  0  0  0  0  0  0  0  0  0  0
   23.0654   16.8525   39.1757 C   0  0  0  0  0  0  0  0  0  0  0  0
   23.0102   22.5377   33.2873 C   0  0  0  0  0  0  0  0  0  0  0  0
   22.9795   23.9313   33.4552 C   0  0  0  0  0  0  0  0  0  0  0  0
   23.6548   16.9100   37.8028 C   0  0  0  0  0  0  0  0  0  0  0  0
   23.4949   17.5940   40.2644 C   0  0  0  0  0  0  0  0  0  0  0  0
   23.8717   19.1012   35.3103 C   0  0  1  0  0  0  0  0  0  0  0  0
   23.9401   19.4359   33.9428 C   0  0  0  0  0  0  0  0  0  0  0  0
   23.8207   23.5009   35.6833 C   0  0  0  0  0  0  0  0  0  0  0  0
   24.8201   17.7702   37.4102 C   0  0  0  0  0  0  0  0  0  0  0  0
   24.9135   18.7607   36.2860 C   0  0  0  0  0  0  0  0  0  0  0  0
   25.1211   16.8959   33.1677 C   0  0  0  0  0  0  0  0  0  0  0  0
   25.0710   19.4364   33.0656 C   0  0  0  0  0  0  0  0  0  0  0  0
   25.4385   18.1471   32.5228 C   0  0  0  0  0  0  0  0  0  0  0  0
   25.4764   15.6858   32.5289 C   0  0  0  0  0  0  0  0  0  0  0  0
   26.1493   15.7211   31.3054 C   0  0  0  0  0  0  0  0  0  0  0  0
   25.9924   17.5244   38.0805 C   0  0  0  0  0  0  0  0  0  0  0  0
   26.1152   18.1242   31.3110 C   0  0  0  0  0  0  0  0  0  0  0  0
   26.0904   19.4394   36.1262 C   0  0  0  0  0  0  0  0  0  0  0  0
   26.4304   16.9189   30.7276 C   0  0  0  0  0  0  0  0  0  0  0  0
   26.2898   19.2752   30.4404 C   0  0  0  0  0  0  0  0  0  0  0  0
   27.1681   18.1773   37.8499 C   0  0  0  0  0  0  0  0  0  0  0  0
   27.2091   19.1700   36.8838 C   0  0  0  0  0  0  0  0  0  0  0  0
   27.8587   19.5921   30.4215 C   0  0  0  0  0  0  0  0  0  0  0  0
   21.8065   17.8805   27.1434 O   0  0  0  0  0  0  0  0  0  0  0  0
   23.5277   24.4494   34.6173 O   0  0  0  0  0  0  0  0  0  0  0  0
   25.5970   20.4346   32.8233 O   0  0  0  0  0  0  0  0  0  0  0  0
   21.9403   19.8043   34.5546 N   0  0  0  0  0  0  0  0  0  0  0  0
   22.5841   19.3792   35.6613 N   0  0  0  0  0  0  0  0  0  0  0  0
  1  4  2  0
  1  8  1  0
  2  3  2  0
  2  5  1  0
  3  9  1  0
  4 13  1  0
  5 14  2  0
  5 40  1  0
  6  7  2  0
  6 11  1  0
  7 12  1  0
  8 17  2  0
 10  9  1  6
  9 16  2  0
 10 11  1  0
 10 15  1  0
 11 18  2  0
 12 19  2  0
 13 21  2  0
 14 16  1  0
 15 23  2  0
 15 43  1  0
 17 20  1  0
 17 21  1  0
 18 19  1  0
 19 41  1  0
 20 25  1  0
 22 23  1  0
 22 26  1  1
 22 44  1  0
 23 28  1  0
 24 41  1  0
 25 26  1  0
 25 32  2  0
 26 34  2  0
 27 29  2  0
 27 30  1  0
 28 29  1  0
 28 42  2  0
 29 33  1  0
 30 31  2  0
 31 35  1  0
 32 37  1  0
 33 35  2  0
 33 36  1  0
 34 38  1  0
 36 39  1  0
 37 38  2  0
 43 44  1  0
M  END
$$$$

     RDKit          3D

 36 41  0  0  0  0  0  0  0  0999 V2000
   21.3904   17.2644   28.5119 C   0  0  0  0  0  0  0  0  0  0  0  0
   21.2739   19.2679   29.9252 C   0  0  0  0  0  0  0  0  0  0  0  0
   21.6447   19.2080   31.2759 C   0  0  0  0  0  0  0  0  0  0  0  0
   21.5067   20.4469   29.2406 C   0  0  0  0  0  0  0  0  0  0  0  0
   21.7810   16.5012   40.7662 C   0  0  0  0  0  0  0  0  0  0  0  0
   22.0561   17.9833   38.1980 C   0  0  0  0  0  0  0  0  0  0  0  0
   22.1340   21.5392   29.8537 C   0  0  0  0  0  0  0  0  0  0  0  0
   22.4310   18.9334   37.2712 C   0  0  0  0  0  0  0  0  0  0  0  0
   22.2620   20.3089   31.8776 C   0  0  0  0  0  0  0  0  0  0  0  0
   22.5136   21.4689   31.1932 C   0  0  0  0  0  0  0  0  0  0  0  0
   23.0149   17.2033   38.8200 C   0  0  0  0  0  0  0  0  0  0  0  0
   23.3102   21.6631   33.3063 C   0  0  0  0  0  0  0  0  0  0  0  0
   23.5590   21.2329   35.6565 C   0  0  0  0  0  0  0  0  0  0  0  0
   23.7699   19.0685   36.9099 C   0  0  0  0  0  0  0  0  0  0  0  0
   24.3650   17.3792   38.5079 C   0  0  0  0  0  0  0  0  0  0  0  0
   24.2185   19.9789   35.8537 C   0  0  2  0  0  0  0  0  0  0  0  0
   24.7829   16.9456   32.6386 C   0  0  0  0  0  0  0  0  0  0  0  0
   24.7408   17.7414   33.7861 C   0  0  0  0  0  0  0  0  0  0  0  0
   24.7605   18.3338   37.6072 C   0  0  0  0  0  0  0  0  0  0  0  0
   25.6807   17.2625   31.6203 C   0  0  0  0  0  0  0  0  0  0  0  0
   25.5075   18.9038   33.8983 C   0  0  0  0  0  0  0  0  0  0  0  0
   25.5264   19.7538   35.1598 C   0  0  2  0  0  0  0  0  0  0  0  0
   26.1684   18.6171   37.3269 C   0  0  0  0  0  0  0  0  0  0  0  0
   26.4091   19.1909   32.8583 C   0  0  0  0  0  0  0  0  0  0  0  0
   26.4838   18.3903   31.7392 C   0  0  0  0  0  0  0  0  0  0  0  0
   26.5437   19.2818   36.1525 C   0  0  0  0  0  0  0  0  0  0  0  0
   27.1556   18.2161   38.2449 C   0  0  0  0  0  0  0  0  0  0  0  0
   27.8876   19.4702   35.8658 C   0  0  0  0  0  0  0  0  0  0  0  0
   28.5018   18.4775   37.9632 C   0  0  0  0  0  0  0  0  0  0  0  0
   28.8679   19.1138   36.7722 C   0  0  0  0  0  0  0  0  0  0  0  0
   20.5809   18.2394   29.2055 O   0  0  0  0  0  0  0  0  0  0  0  0
   22.7003   16.2180   39.7392 O   0  0  0  0  0  0  0  0  0  0  0  0
   22.8754   21.8252   36.4854 O   0  0  0  0  0  0  0  0  0  0  0  0
   22.7183   20.4517   33.1540 N   0  0  0  0  0  0  0  0  0  0  0  0
   23.2040   22.3348   32.1209 N   0  0  0  0  0  0  0  0  0  0  0  0
   23.8814   21.9742   34.4976 N   0  0  0  0  0  0  0  0  0  0  0  0
  1 31  1  0
  2  3  1  0
  2  4  2  0
  2 31  1  0
  3  9  1  0
  4  7  1  0
  5 32  1  0
  6  8  2  0
  6 11  1  0
  7 10  1  0
  8 14  1  0
  9 10  2  0
  9 34  1  0
 10 35  1  0
 11 15  2  0
 11 32  1  0
 12 34  2  0
 12 35  1  0
 12 36  1  0
 16 13  1  1
 13 33  2  0
 13 36  1  0
 14 16  1  0
 14 19  2  0
 15 19  1  0
 16 22  1  0
 17 18  2  0
 17 20  1  0
 18 21  1  0
 19 23  1  0
 20 25  2  0
 22 21  1  6
 21 24  2  0
 22 26  1  0
 23 26  2  0
 23 27  1  0
 24 25  1  0
 26 28  1  0
 27 29  2  0
 28 30  2  0
 29 30  1  0
M  END
$$$$

     RDKit          3D

 41 46  0  0  0  0  0  0  0  0999 V2000
   21.4835   20.7645   29.6244 C   0  0  0  0  0  0  0  0  0  0  0  0
   21.9298   19.7389   30.6891 C   0  0  2  0  0  0  0  0  0  0  0  0
   22.1088   20.3805   36.7255 C   0  0  0  0  0  0  0  0  0  0  0  0
   22.3209   16.2110   40.0062 C   0  0  0  0  0  0  0  0  0  0  0  0
   22.4411   19.6404   33.1315 C   0  0  0  0  0  0  0  0  0  0  0  0
   22.3892   20.4000   31.9457 C   0  0  0  0  0  0  0  0  0  0  0  0
   22.4183   21.9319   36.6028 C   0  0  0  0  0  0  0  0  0  0  0  0
   22.6868   19.4544   35.6107 C   0  0  1  0  0  0  0  0  0  0  0  0
   22.6898   21.7812   32.0031 C   0  0  0  0  0  0  0  0  0  0  0  0
   22.8398   16.0520   38.6847 C   0  0  0  0  0  0  0  0  0  0  0  0
   22.9192   17.1391   40.8562 C   0  0  0  0  0  0  0  0  0  0  0  0
   22.7700   20.2180   34.3342 C   0  0  0  0  0  0  0  0  0  0  0  0
   23.1104   18.9283   30.1780 C   0  0  0  0  0  0  0  0  0  0  0  0
   23.0473   21.6143   34.3942 C   0  0  0  0  0  0  0  0  0  0  0  0
   23.0184   22.3787   33.2018 C   0  0  0  0  0  0  0  0  0  0  0  0
   23.8767   16.8232   38.2021 C   0  0  0  0  0  0  0  0  0  0  0  0
   23.9733   17.9235   40.4247 C   0  0  0  0  0  0  0  0  0  0  0  0
   24.0241   19.7348   29.4691 C   0  0  0  0  0  0  0  0  0  0  0  0
   24.3649   17.6167   35.9396 C   0  0  1  0  0  0  0  0  0  0  0  0
   24.6906   16.0072   34.0862 C   0  0  0  0  0  0  0  0  0  0  0  0
   24.4698   17.7690   39.0994 C   0  0  0  0  0  0  0  0  0  0  0  0
   24.9306   17.2806   34.6416 C   0  0  0  0  0  0  0  0  0  0  0  0
   24.9583   15.8016   32.7224 C   0  0  0  0  0  0  0  0  0  0  0  0
   25.4586   16.8399   31.9028 C   0  0  0  0  0  0  0  0  0  0  0  0
   25.5801   18.2947   33.8854 C   0  0  0  0  0  0  0  0  0  0  0  0
   25.4621   20.0158   29.5942 C   0  0  0  0  0  0  0  0  0  0  0  0
   25.7555   18.1190   32.4770 C   0  0  0  0  0  0  0  0  0  0  0  0
   26.0595   19.4986   34.4670 C   0  0  0  0  0  0  0  0  0  0  0  0
   26.2961   19.2087   31.7277 C   0  0  0  0  0  0  0  0  0  0  0  0
   26.6930   20.4113   32.3921 C   0  0  0  0  0  0  0  0  0  0  0  0
   26.5755   20.5208   33.7518 C   0  0  0  0  0  0  0  0  0  0  0  0
   27.6338   18.8566   29.6043 C   0  0  0  0  0  0  0  0  0  0  0  0
   28.8540   18.3202   30.3303 C   0  0  0  0  0  0  0  0  0  0  0  0
   23.4404   21.9838   28.1450 O   0  0  0  0  0  0  0  0  0  0  0  0
   23.4108   22.1438   35.6099 O   0  0  0  0  0  0  0  0  0  0  0  0
   24.3620   16.6479   36.9109 O   0  0  0  0  0  0  0  0  0  0  0  0
   27.6276   19.0130   28.3760 O   0  0  0  0  0  0  0  0  0  0  0  0
   23.9591   18.9204   36.1691 N   0  0  0  0  0  0  0  0  0  0  0  0
   26.4583   19.2307   30.3205 N   0  0  0  0  0  0  0  0  0  0  0  0
   22.8377   20.7278   28.3947 S   0  0  0  0  0  0  0  0  0  0  0  0
   22.3806   17.1891   42.8196 Cl  0  0  0  0  0  0  0  0  0  0  0  0
  2  1  1  6
  1 40  1  0
  2  6  1  0
  2 13  1  0
  3  7  1  0
  8  3  1  1
  4 10  1  0
  4 11  1  0
  5  6  2  0
  5 12  1  0
  6  9  1  0
  7 35  1  0
  8 12  1  0
  8 38  1  0
  9 15  2  0
 10 16  2  0
 11 17  2  0
 11 41  1  0
 12 14  2  0
 13 18  1  0
 14 15  1  0
 14 35  1  0
 16 21  1  0
 16 36  1  0
 17 21  1  0
 18 26  1  0
 19 22  1  0
 19 36  1  1
 19 38  1  0
 20 22  2  0
 20 23  1  0
 22 25  1  0
 23 24  2  0
 24 27  1  0
 25 27  2  0
 25 28  1  0
 26 39  1  0
 27 29  1  0
 28 31  2  0
 29 30  2  0
 29 39  1  0
 30 31  1  0
 32 33  1  0
 32 37  2  0
 32 39  1  0
 34 40  1  0
M  END
$$$$

     RDKit          3D

 44 49  0  0  0  0  0  0  0  0999 V2000
   21.4892   16.7856   41.6692 C   0  0  0  0  0  0  0  0  0  0  0  0
   21.8152   18.3821   29.1494 C   0  0  0  0  0  0  0  0  0  0  0  0
   21.9483   24.0942   31.8153 C   0  0  0  0  0  0  0  0  0  0  0  0
   22.1994   22.7151   31.7341 C   0  0  0  0  0  0  0  0  0  0  0  0
   22.0743   24.9008   30.6743 C   0  0  0  0  0  0  0  0  0  0  0  0
   22.3383   16.0738   39.4523 C   0  0  0  0  0  0  0  0  0  0  0  0
   22.4504   16.9018   40.5464 C   0  0  0  0  0  0  0  0  0  0  0  0
   22.5420   19.8319   35.9175 C   0  0  0  0  0  0  0  0  0  0  0  0
   22.5486   22.1937   30.4682 C   0  0  0  0  0  0  0  0  0  0  0  0
   22.6853   23.0444   29.3830 C   0  0  0  0  0  0  0  0  0  0  0  0
   22.7434   18.4032   30.2042 C   0  0  0  0  0  0  0  0  0  0  0  0
   22.8575   19.6794   33.3405 C   0  0  0  0  0  0  0  0  0  0  0  0
   22.9031   20.9091   30.0653 C   0  0  0  0  0  0  0  0  0  0  0  0
   22.9714   19.6984   30.8141 C   0  0  2  0  0  0  0  0  0  0  0  0
   23.2363   16.1195   38.4308 C   0  0  0  0  0  0  0  0  0  0  0  0
   23.2752   21.0055   28.6943 C   0  0  0  0  0  0  0  0  0  0  0  0
   23.4984   17.8301   40.5974 C   0  0  0  0  0  0  0  0  0  0  0  0
   23.6413   19.7423   32.1772 C   0  0  0  0  0  0  0  0  0  0  0  0
   24.2801   16.9992   38.4656 C   0  0  0  0  0  0  0  0  0  0  0  0
   24.4222   17.8881   39.5391 C   0  0  0  0  0  0  0  0  0  0  0  0
   24.4689   19.9976   34.5528 C   0  0  0  0  0  0  0  0  0  0  0  0
   25.0551   18.0831   36.3572 C   0  0  0  0  0  0  0  0  0  0  0  0
   25.0194   19.8509   32.3600 C   0  0  2  0  0  0  0  0  0  0  0  0
   25.1861   20.5934   36.0071 C   0  0  0  0  0  0  0  0  0  0  0  0
   25.2481   16.9499   37.3426 C   0  0  0  0  0  0  0  0  0  0  0  0
   25.6634   19.3906   36.8643 C   0  0  2  0  0  0  0  0  0  0  0  0
   26.0757   19.6167   31.3499 C   0  0  0  0  0  0  0  0  0  0  0  0
   26.4748   18.2976   31.1222 C   0  0  0  0  0  0  0  0  0  0  0  0
   26.6933   20.6555   30.6490 C   0  0  0  0  0  0  0  0  0  0  0  0
   27.1346   19.2860   36.9070 C   0  0  0  0  0  0  0  0  0  0  0  0
   27.5109   18.0093   30.2305 C   0  0  0  0  0  0  0  0  0  0  0  0
   27.6934   18.9923   38.1410 C   0  0  0  0  0  0  0  0  0  0  0  0
   27.7260   20.3633   29.7620 C   0  0  0  0  0  0  0  0  0  0  0  0
   28.1333   19.0211   29.5415 C   0  0  0  0  0  0  0  0  0  0  0  0
   27.9748   19.4437   35.8147 C   0  0  0  0  0  0  0  0  0  0  0  0
   29.0762   18.8881   38.3195 C   0  0  0  0  0  0  0  0  0  0  0  0
   29.3378   19.3344   35.9607 C   0  0  0  0  0  0  0  0  0  0  0  0
   29.8854   19.0507   37.2035 C   0  0  0  0  0  0  0  0  0  0  0  0
   21.6110   19.3898   33.2810 O   0  0  0  0  0  0  0  0  0  0  0  0
   20.4935   15.9158   41.5404 N   0  0  0  0  0  0  0  0  0  0  0  0
   22.4261   24.3796   29.4598 N   0  0  0  0  0  0  0  0  0  0  0  0
   23.1127   22.3483   28.2996 N   0  0  0  0  0  0  0  0  0  0  0  0
   23.4102   19.9317   34.4079 N   0  0  0  0  0  0  0  0  0  0  0  0
   25.3651   19.9710   33.6568 N   0  0  0  0  0  0  0  0  0  0  0  0
  1  7  1  0
  1 40  2  0
  2 11  1  0
  3  4  1  0
  3  5  2  0
  4  9  1  0
  5 41  1  0
  6  7  2  0
  6 15  1  0
  7 17  1  0
  8 43  1  0
  9 10  1  0
  9 13  2  0
 10 41  2  0
 10 42  1  0
 14 11  1  6
 12 18  1  0
 12 39  2  0
 12 43  1  0
 13 14  1  0
 13 16  1  0
 14 18  1  0
 15 19  2  0
 16 42  1  0
 17 20  2  0
 18 23  1  0
 19 20  1  0
 19 25  1  0
 21 24  1  0
 21 43  1  0
 21 44  2  0
 22 25  1  0
 26 22  1  6
 23 27  1  1
 23 44  1  0
 24 26  1  0
 26 30  1  0
 27 28  2  0
 27 29  1  0
 28 31  1  0
 29 33  2  0
 30 32  2  0
 30 35  1  0
 31 34  2  0
 32 36  1  0
 33 34  1  0
 35 37  2  0
 36 38  2  0
 37 38  1  0
M  END
$$$$

     RDKit          3D

 33 36  0  0  0  0  0  0  0  0999 V2000
   21.8786   16.0954   40.3875 C   0  0  0  0  0  0  0  0  0  0  0  0
   22.5867   18.3613   29.6678 C   0  0  0  0  0  0  0  0  0  0  0  0
   22.6830   19.2467   35.7080 C   0  0  0  0  0  0  0  0  0  0  0  0
   22.5100   19.5715   27.6010 C   0  0  0  0  0  0  0  0  0  0  0  0
   22.7907   17.0688   39.9630 C   0  0  0  0  0  0  0  0  0  0  0  0
   23.0298   17.3078   38.4746 C   0  0  0  0  0  0  0  0  0  0  0  0
   23.1279   17.6632   42.3343 C   0  0  0  0  0  0  0  0  0  0  0  0
   23.0024   19.3704   34.3406 C   0  0  0  0  0  0  0  0  0  0  0  0
   23.0310   19.4866   30.3682 C   0  0  0  0  0  0  0  0  0  0  0  0
   22.9719   20.7122   28.2802 C   0  0  0  0  0  0  0  0  0  0  0  0
   23.4245   17.8077   40.9461 C   0  0  0  0  0  0  0  0  0  0  0  0
   23.2268   19.4286   31.8163 C   0  0  0  0  0  0  0  0  0  0  0  0
   23.2366   20.6815   29.6610 C   0  0  0  0  0  0  0  0  0  0  0  0
   23.6953   18.8870   36.6531 C   0  0  0  0  0  0  0  0  0  0  0  0
   24.3045   19.1249   33.8610 C   0  0  0  0  0  0  0  0  0  0  0  0
   25.0166   18.7015   36.1688 C   0  0  0  0  0  0  0  0  0  0  0  0
   25.3135   18.8394   34.7923 C   0  0  0  0  0  0  0  0  0  0  0  0
   25.5324   18.8939   31.6775 C   0  0  0  0  0  0  0  0  0  0  0  0
   25.7188   17.5070   31.3737 C   0  0  0  0  0  0  0  0  0  0  0  0
   26.0896   18.3794   37.1685 C   0  0  0  0  0  0  0  0  0  0  0  0
   26.3265   19.9244   31.1013 C   0  0  0  0  0  0  0  0  0  0  0  0
   26.8837   17.1376   30.6348 C   0  0  0  0  0  0  0  0  0  0  0  0
   27.2899   19.2903   37.2592 C   0  0  0  0  0  0  0  0  0  0  0  0
   27.4736   19.5326   30.3773 C   0  0  0  0  0  0  0  0  0  0  0  0
   27.7763   18.1715   30.2661 C   0  0  0  0  0  0  0  0  0  0  0  0
   29.6799   18.9982   37.6759 C   0  0  0  0  0  0  0  0  0  0  0  0
   28.4500   18.4745   37.3339 O   0  0  0  0  0  0  0  0  0  0  0  0
   21.5974   15.9109   41.6585 N   0  0  0  0  0  0  0  0  0  0  0  0
   22.3002   18.4318   28.3460 N   0  0  0  0  0  0  0  0  0  0  0  0
   23.4089   18.5936   38.0282 N   0  0  0  0  0  0  0  0  0  0  0  0
   24.3765   19.1730   32.4412 N   0  0  0  0  0  0  0  0  0  0  0  0
   21.9877   19.6858   32.9443 S   0  0  0  0  0  0  0  0  0  0  0  0
   23.1936   21.8033   27.5624 F   0  0  0  0  0  0  0  0  0  0  0  0
  1  5  1  0
  1 28  2  0
  2  9  1  0
  2 29  2  0
  3  8  2  0
  3 14  1  0
  4 10  1  0
  4 29  1  0
  5  6  1  0
  5 11  2  3
  6 30  2  3
  7 11  1  0
  8 15  1  0
  8 32  1  0
  9 12  1  0
  9 13  1  0
 10 13  2  0
 10 33  1  0
 12 31  1  0
 12 32  1  0
 14 16  2  0
 14 30  1  0
 15 17  2  0
 15 31  1  0
 16 17  1  0
 16 20  1  0
 18 19  2  0
 18 21  1  0
 18 31  1  0
 19 22  1  0
 20 23  1  0
 21 24  2  0
 22 25  2  0
 23 27  1  0
 24 25  1  0
 26 27  1  0
M  END
$$$$

     RDKit          3D

 25 28  0  0  0  0  0  0  0  0999 V2000
   21.8757   19.8017   31.0549 C   0  0  0  0  0  0  0  0  0  0  0  0
   22.1176   18.9209   28.7127 C   0  0  0  0  0  0  0  0  0  0  0  0
   22.5925   20.1933   32.3573 C   0  0  0  0  0  0  0  0  0  0  0  0
   22.9230   19.4228   29.9400 C   0  0  1  0  0  0  0  0  0  0  0  0
   22.8253   19.1825   35.7043 C   0  0  0  0  0  0  0  0  0  0  0  0
   23.0944   15.9237   39.5810 C   0  0  0  0  0  0  0  0  0  0  0  0
   22.9944   17.9253   38.0472 C   0  0  0  0  0  0  0  0  0  0  0  0
   23.3355   18.9799   32.9356 C   0  0  2  0  0  0  0  0  0  0  0  0
   23.7075   18.7693   36.9337 C   0  0  1  0  0  0  0  0  0  0  0  0
   23.6972   20.6979   29.5341 C   0  0  0  0  0  0  0  0  0  0  0  0
   23.9329   17.1080   39.0391 C   0  0  2  0  0  0  0  0  0  0  0  0
   23.8687   18.2803   30.4900 C   0  0  0  0  0  0  0  0  0  0  0  0
   23.8576   19.2002   34.4289 C   0  0  2  0  0  0  0  0  0  0  0  0
   24.6890   18.0123   34.8592 C   0  0  2  0  0  0  0  0  0  0  0  0
   24.4901   18.5649   31.9019 C   0  0  2  0  0  0  0  0  0  0  0  0
   24.6641   20.5362   34.5584 C   0  0  0  0  0  0  0  0  0  0  0  0
   24.9735   18.0630   36.3787 C   0  0  2  0  0  0  0  0  0  0  0  0
   25.2146   16.6386   36.8474 C   0  0  0  0  0  0  0  0  0  0  0  0
   25.2152   16.4960   38.3509 C   0  0  0  0  0  0  0  0  0  0  0  0
   25.3500   17.3855   32.4591 C   0  0  0  0  0  0  0  0  0  0  0  0
   25.8475   17.6602   33.8925 C   0  0  0  0  0  0  0  0  0  0  0  0
   26.2385   18.9930   36.7386 C   0  0  0  0  0  0  0  0  0  0  0  0
   21.7754   17.7349   28.5819 O   0  0  0  0  0  0  0  0  0  0  0  0
   21.7845   19.7414   27.8519 O   0  0  0  0  0  0  0  0  0  0  0  0
   24.3293   17.8681   40.0947 O   0  0  0  0  0  0  0  0  0  0  0  0
  1  3  1  0
  1  4  1  0
  2  4  1  0
  2 23  2  0
  2 24  1  0
  8  3  1  6
  4 10  1  6
  4 12  1  0
  9  5  1  6
  5 13  1  0
 11  6  1  1
  7  9  1  0
  7 11  1  0
  8 13  1  0
  8 15  1  0
  9 17  1  0
 11 19  1  0
 11 25  1  0
 15 12  1  6
 13 14  1  0
 13 16  1  6
 14 17  1  0
 14 21  1  6
 15 20  1  0
 17 18  1  0
 17 22  1  6
 18 19  1  0
 20 21  1  0
M  END
$$$$

     RDKit          3D

 36 39  0  0  0  0  0  0  0  0999 V2000
   21.1825   19.3095   30.8034 C   0  0  0  0  0  0  0  0  0  0  0  0
   21.6434   17.9263   28.8619 C   0  0  0  0  0  0  0  0  0  0  0  0
   21.7222   20.1877   31.7904 C   0  0  0  0  0  0  0  0  0  0  0  0
   22.4211   19.5048   32.9058 C   0  0  0  0  0  0  0  0  0  0  0  0
   22.7858   15.8877   39.4887 C   0  0  0  0  0  0  0  0  0  0  0  0
   22.9560   16.7715   40.5414 C   0  0  0  0  0  0  0  0  0  0  0  0
   23.4336   19.1556   30.0654 C   0  0  0  0  0  0  0  0  0  0  0  0
   23.5521   16.0200   38.3509 C   0  0  0  0  0  0  0  0  0  0  0  0
   23.8901   17.7944   40.4535 C   0  0  0  0  0  0  0  0  0  0  0  0
   24.0419   18.1224   30.7611 C   0  0  0  0  0  0  0  0  0  0  0  0
   24.3523   19.4904   34.3529 C   0  0  0  0  0  0  0  0  0  0  0  0
   24.2217   20.2809   29.6699 C   0  0  0  0  0  0  0  0  0  0  0  0
   24.4768   17.0564   38.2252 C   0  0  0  0  0  0  0  0  0  0  0  0
   24.6781   17.9283   39.3088 C   0  0  0  0  0  0  0  0  0  0  0  0
   25.1175   18.2170   35.9979 C   0  0  0  0  0  0  0  0  0  0  0  0
   25.2679   17.1097   36.9661 C   0  0  0  0  0  0  0  0  0  0  0  0
   25.3668   18.1735   31.1634 C   0  0  0  0  0  0  0  0  0  0  0  0
   25.6484   19.9615   34.6875 C   0  0  0  0  0  0  0  0  0  0  0  0
   25.6377   20.2847   29.9917 C   0  0  0  0  0  0  0  0  0  0  0  0
   25.9254   17.0881   32.0643 C   0  0  0  0  0  0  0  0  0  0  0  0
   26.1799   19.2248   30.7381 C   0  0  0  0  0  0  0  0  0  0  0  0
   27.3983   19.1081   36.3384 C   0  0  0  0  0  0  0  0  0  0  0  0
   27.4842   19.2328   37.7299 C   0  0  0  0  0  0  0  0  0  0  0  0
   28.5639   18.9243   35.5685 C   0  0  0  0  0  0  0  0  0  0  0  0
   28.7256   19.1636   38.3813 C   0  0  0  0  0  0  0  0  0  0  0  0
   29.8058   18.8855   36.2043 C   0  0  0  0  0  0  0  0  0  0  0  0
   29.8852   18.9786   37.6007 C   0  0  0  0  0  0  0  0  0  0  0  0
   20.3479   17.4470   29.1386 O   0  0  0  0  0  0  0  0  0  0  0  0
   21.2916   16.7521   29.4771 O   0  0  0  0  0  0  0  0  0  0  0  0
   22.0060   18.0295   27.6701 O   0  0  0  0  0  0  0  0  0  0  0  0
   26.1953   20.9196   34.1642 O   0  0  0  0  0  0  0  0  0  0  0  0
   22.0197   19.0067   29.7494 N   0  0  0  0  0  0  0  0  0  0  0  0
   23.5590   20.1003   33.4123 N   0  0  0  0  0  0  0  0  0  0  0  0
   24.0635   18.4056   35.1231 N   0  0  0  0  0  0  0  0  0  0  0  0
   26.1001   19.1496   35.6889 N   0  0  0  0  0  0  0  0  0  0  0  0
   21.9535   16.6493   41.8533 Cl  0  0  0  0  0  0  0  0  0  0  0  0
  1  3  1  0
  1 32  1  0
  2 29  1  0
  2 30  2  0
  2 32  1  0
  3  4  1  0
  4 33  1  0
  5  6  2  0
  5  8  1  0
  6  9  1  0
  6 36  1  0
  7 10  2  0
  7 12  1  0
  7 32  1  0
  8 13  2  0
  9 14  2  0
 10 17  1  0
 11 18  1  0
 11 33  2  3
 11 34  1  0
 12 19  2  0
 13 14  1  0
 13 16  1  0
 15 16  1  0
 15 34  2  0
 15 35  1  0
 17 20  1  0
 17 21  2  0
 18 31  2  0
 18 35  1  0
 19 21  1  0
 22 23  2  0
 22 24  1  0
 22 35  1  0
 23 25  1  0
 24 26  2  0
 25 27  2  0
 26 27  1  0
 28 29  1  0
M  END
$$$$

     RDKit          3D

 37 41  0  0  0  0  0  0  0  0999 V2000
   20.6207   15.1779   41.9481 C   0  0  0  0  0  0  0  0  0  0  0  0
   21.2746   16.3531   42.4734 C   0  0  0  0  0  0  0  0  0  0  0  0
   21.6540   17.3007   28.5889 C   0  0  0  0  0  0  0  0  0  0  0  0
   21.6940   17.2205   41.3876 C   0  0  0  0  0  0  0  0  0  0  0  0
   21.7027   17.5037   27.0220 C   0  0  0  0  0  0  0  0  0  0  0  0
   21.5431   19.3466   29.9606 C   0  0  0  0  0  0  0  0  0  0  0  0
   21.9420   19.1430   31.2997 C   0  0  0  0  0  0  0  0  0  0  0  0
   21.7390   20.5786   29.3524 C   0  0  0  0  0  0  0  0  0  0  0  0
   22.2188   18.1786   38.6594 C   0  0  0  0  0  0  0  0  0  0  0  0
   22.4301   21.5874   30.0521 C   0  0  0  0  0  0  0  0  0  0  0  0
   22.5073   18.5830   37.3524 C   0  0  0  0  0  0  0  0  0  0  0  0
   22.6140   20.1686   32.0373 C   0  0  0  0  0  0  0  0  0  0  0  0
   22.8178   20.1810   33.5569 C   0  0  0  0  0  0  0  0  0  0  0  0
   22.8610   21.3886   31.3588 C   0  0  0  0  0  0  0  0  0  0  0  0
   23.0103   17.1059   40.7892 C   0  0  0  0  0  0  0  0  0  0  0  0
   23.0748   18.8834   34.3237 C   0  0  0  0  0  0  0  0  0  0  0  0
   23.2528   17.7437   39.4925 C   0  0  0  0  0  0  0  0  0  0  0  0
   23.8306   18.5932   36.8483 C   0  0  0  0  0  0  0  0  0  0  0  0
   24.1358   18.8118   35.4105 C   0  0  0  0  0  0  0  0  0  0  0  0
   24.5525   17.8182   39.0459 C   0  0  0  0  0  0  0  0  0  0  0  0
   24.8613   18.2327   37.7701 C   0  0  0  0  0  0  0  0  0  0  0  0
   25.1786   16.1947   33.5894 C   0  0  0  0  0  0  0  0  0  0  0  0
   25.6849   17.4375   32.9087 C   0  0  0  0  0  0  0  0  0  0  0  0
   25.8068   18.6592   33.6413 C   0  0  0  0  0  0  0  0  0  0  0  0
   26.0089   17.3519   31.5249 C   0  0  0  0  0  0  0  0  0  0  0  0
   26.2417   18.4689   37.3747 C   0  0  0  0  0  0  0  0  0  0  0  0
   26.2218   19.8119   32.9305 C   0  0  0  0  0  0  0  0  0  0  0  0
   26.5128   18.4940   30.9047 C   0  0  0  0  0  0  0  0  0  0  0  0
   26.5207   18.7137   36.0007 C   0  0  0  0  0  0  0  0  0  0  0  0
   26.6251   19.7230   31.5851 C   0  0  0  0  0  0  0  0  0  0  0  0
   27.2986   18.4440   38.3065 C   0  0  0  0  0  0  0  0  0  0  0  0
   27.8509   19.0072   35.6472 C   0  0  0  0  0  0  0  0  0  0  0  0
   28.6080   18.7549   37.9321 C   0  0  0  0  0  0  0  0  0  0  0  0
   28.8675   19.0787   36.6285 C   0  0  0  0  0  0  0  0  0  0  0  0
   20.8587   18.3955   29.1872 O   0  0  0  0  0  0  0  0  0  0  0  0
   26.0259   20.9648   33.4490 O   0  0  0  0  0  0  0  0  0  0  0  0
   25.4666   18.7134   35.0354 N   0  0  0  0  0  0  0  0  0  0  0  0
  1  2  1  0
  2  4  1  0
  3  5  1  0
  3 35  1  0
  4 15  2  3
  6  7  2  0
  6  8  1  0
  6 35  1  0
  7 12  1  0
  8 10  2  0
  9 11  1  0
  9 17  2  0
 10 14  1  0
 11 18  1  0
 12 13  1  0
 12 14  2  0
 13 16  1  0
 15 17  1  0
 16 19  1  0
 17 20  1  0
 18 19  2  0
 18 21  1  0
 19 37  1  0
 20 21  2  0
 21 26  1  0
 22 23  1  0
 23 24  2  0
 23 25  1  0
 24 27  1  0
 24 37  1  0
 25 28  2  0
 26 29  2  0
 26 31  1  0
 27 30  1  0
 27 36  2  0
 28 30  1  0
 29 32  1  0
 29 37  1  0
 31 33  2  0
 32 34  2  0
 33 34  1  0
M  END
$$$$

     RDKit          3D

 33 37  0  0  0  0  0  0  0  0999 V2000
   22.0252   16.4866   39.3246 C   0  0  0  0  0  0  0  0  0  0  0  0
   22.1827   17.0105   40.6176 C   0  0  0  0  0  0  0  0  0  0  0  0
   22.1729   20.9980   29.4660 C   0  0  0  0  0  0  0  0  0  0  0  0
   22.7837   20.1037   33.4420 C   0  0  0  0  0  0  0  0  0  0  0  0
   22.7719   20.7358   32.1821 C   0  0  0  0  0  0  0  0  0  0  0  0
   22.9403   22.1418   32.1325 C   0  0  0  0  0  0  0  0  0  0  0  0
   22.9931   16.6525   38.3427 C   0  0  0  0  0  0  0  0  0  0  0  0
   23.1828   20.2531   35.9457 C   0  0  0  0  0  0  0  0  0  0  0  0
   23.0044   20.8634   34.6142 C   0  0  0  0  0  0  0  0  0  0  0  0
   23.0972   22.2431   34.5151 C   0  0  0  0  0  0  0  0  0  0  0  0
   23.0722   22.9142   33.2905 C   0  0  0  0  0  0  0  0  0  0  0  0
   23.4268   17.6744   40.9159 C   0  0  0  0  0  0  0  0  0  0  0  0
   24.1632   17.3816   38.5617 C   0  0  0  0  0  0  0  0  0  0  0  0
   24.4191   17.8775   39.8931 C   0  0  0  0  0  0  0  0  0  0  0  0
   24.4482   18.0717   35.9620 C   0  0  1  0  0  0  0  0  0  0  0  0
   24.8531   16.3294   34.1302 C   0  0  0  0  0  0  0  0  0  0  0  0
   24.9052   19.5435   29.8136 C   0  0  0  0  0  0  0  0  0  0  0  0
   25.0319   17.6600   34.5551 C   0  0  0  0  0  0  0  0  0  0  0  0
   25.1497   17.5366   37.2852 C   0  0  0  0  0  0  0  0  0  0  0  0
   25.3031   15.9008   32.8675 C   0  0  0  0  0  0  0  0  0  0  0  0
   25.7089   18.5686   33.6953 C   0  0  0  0  0  0  0  0  0  0  0  0
   25.9742   16.8008   31.9950 C   0  0  0  0  0  0  0  0  0  0  0  0
   26.1912   18.1602   32.4268 C   0  0  0  0  0  0  0  0  0  0  0  0
   26.0690   20.1895   30.1477 C   0  0  2  0  0  0  0  0  0  0  0  0
   26.6498   18.9132   30.0267 C   0  0  0  0  0  0  0  0  0  0  0  0
   26.5039   20.5958   31.5701 C   0  0  0  0  0  0  0  0  0  0  0  0
   26.9600   19.0964   31.5243 C   0  0  1  0  0  0  0  0  0  0  0  0
   21.2978   19.0786   30.8951 O   0  0  0  0  0  0  0  0  0  0  0  0
   23.7532   19.0420   30.3537 O   0  0  0  0  0  0  0  0  0  0  0  0
   20.8741   21.2072   29.1300 N   0  0  0  0  0  0  0  0  0  0  0  0
   22.2500   20.3550   36.8842 N   0  0  0  0  0  0  0  0  0  0  0  0
   24.3639   19.4310   36.0811 N   0  0  0  0  0  0  0  0  0  0  0  0
   22.5108   19.8338   30.7721 S   0  0  1  0  0  0  0  0  0  0  0  0
  1  2  2  0
  1  7  1  0
  2 12  1  0
  3 30  1  0
  3 33  1  0
  4  5  1  0
  4  9  2  0
  5  6  2  0
  5 33  1  0
  6 11  1  0
  7 13  2  0
  8  9  1  0
  8 31  2  0
  8 32  1  0
  9 10  1  0
 10 11  2  0
 12 14  2  0
 13 14  1  0
 13 19  1  0
 15 18  1  0
 15 19  1  1
 15 32  1  0
 16 18  2  0
 16 20  1  0
 24 17  1  1
 17 29  1  0
 18 21  1  0
 20 22  2  0
 21 23  2  0
 22 23  1  0
 23 27  1  0
 24 25  1  0
 24 26  1  0
 27 25  1  6
 26 27  1  0
 33 28  1  1
 29 33  1  0
M  END
$$$$

     RDKit          3D

 40 45  0  0  0  0  0  0  0  0999 V2000
   21.4273   20.5946   29.9071 C   0  0  0  0  0  0  0  0  0  0  0  0
   21.6952   15.8498   40.2644 C   0  0  0  0  0  0  0  0  0  0  0  0
   21.6821   16.4815   41.4986 C   0  0  0  0  0  0  0  0  0  0  0  0
   22.1001   19.1552   36.6349 C   0  0  0  0  0  0  0  0  0  0  0  0
   22.7313   16.1029   39.3601 C   0  0  0  0  0  0  0  0  0  0  0  0
   22.7097   17.3851   41.8470 C   0  0  0  0  0  0  0  0  0  0  0  0
   22.7432   19.9944   30.3104 C   0  0  0  0  0  0  0  0  0  0  0  0
   22.7999   20.3863   36.0674 C   0  0  0  0  0  0  0  0  0  0  0  0
   23.2082   21.8465   32.0606 C   0  0  0  0  0  0  0  0  0  0  0  0
   23.6990   19.9996   29.0628 C   0  0  0  0  0  0  0  0  0  0  0  0
   23.7789   16.9527   39.6971 C   0  0  0  0  0  0  0  0  0  0  0  0
   23.7337   17.6178   40.9281 C   0  0  0  0  0  0  0  0  0  0  0  0
   24.1178   17.6681   33.2175 C   0  0  0  0  0  0  0  0  0  0  0  0
   24.0989   19.9089   32.4054 C   0  0  0  0  0  0  0  0  0  0  0  0
   24.2832   20.1204   35.9039 C   0  0  0  0  0  0  0  0  0  0  0  0
   24.3279   20.7108   33.4850 C   0  0  0  0  0  0  0  0  0  0  0  0
   24.5361   16.3702   33.2647 C   0  0  0  0  0  0  0  0  0  0  0  0
   24.6896   18.5744   32.3396 C   0  0  0  0  0  0  0  0  0  0  0  0
   24.9641   17.0138   38.7658 C   0  0  0  0  0  0  0  0  0  0  0  0
   25.0043   20.3190   34.7295 C   0  0  0  0  0  0  0  0  0  0  0  0
   25.5274   15.9061   32.3862 C   0  0  0  0  0  0  0  0  0  0  0  0
   25.7659   18.1646   31.5154 C   0  0  2  0  0  0  0  0  0  0  0  0
   26.0564   16.7764   31.4862 C   0  0  0  0  0  0  0  0  0  0  0  0
   26.1432   19.3214   36.9449 C   0  0  0  0  0  0  0  0  0  0  0  0
   26.3591   20.1406   34.7235 C   0  0  0  0  0  0  0  0  0  0  0  0
   26.5822   18.6360   38.0903 C   0  0  0  0  0  0  0  0  0  0  0  0
   26.7204   18.9498   30.7945 C   0  0  0  0  0  0  0  0  0  0  0  0
   26.7753   20.3422   30.6795 C   0  0  0  0  0  0  0  0  0  0  0  0
   26.9784   19.5960   35.8759 C   0  0  0  0  0  0  0  0  0  0  0  0
   27.7094   18.2201   30.1007 C   0  0  0  0  0  0  0  0  0  0  0  0
   27.9312   18.4082   38.2695 C   0  0  0  0  0  0  0  0  0  0  0  0
   27.7243   20.9361   29.9098 C   0  0  0  0  0  0  0  0  0  0  0  0
   28.3434   19.3578   36.0541 C   0  0  0  0  0  0  0  0  0  0  0  0
   28.6918   18.8392   29.3299 C   0  0  0  0  0  0  0  0  0  0  0  0
   28.6532   20.1988   29.2066 C   0  0  0  0  0  0  0  0  0  0  0  0
   28.7952   18.7286   37.2245 C   0  0  0  0  0  0  0  0  0  0  0  0
   25.6049   18.2600   38.9599 O   0  0  0  0  0  0  0  0  0  0  0  0
   23.3557   20.5806   31.5310 N   0  0  0  0  0  0  0  0  0  0  0  0
   23.8329   21.9197   33.2571 N   0  0  0  0  0  0  0  0  0  0  0  0
   24.8406   19.6304   36.9682 N   0  0  0  0  0  0  0  0  0  0  0  0
  1  7  1  0
  2  3  2  0
  2  5  1  0
  3  6  1  0
  4  8  1  0
  5 11  1  0
  6 12  1  0
  7 10  1  0
  7 38  1  0
  8 15  1  0
  9 38  1  0
  9 39  1  0
 11 12  2  0
 11 19  1  0
 13 17  2  0
 13 18  1  0
 14 16  2  0
 14 18  1  0
 14 38  1  0
 15 20  2  0
 15 40  1  0
 16 20  1  0
 16 39  1  0
 17 21  1  0
 18 22  1  0
 19 37  1  0
 20 25  1  0
 21 23  2  0
 22 23  1  0
 22 27  1  1
 24 26  1  0
 24 29  1  0
 24 40  2  0
 25 29  2  0
 26 31  2  0
 26 37  1  0
 27 28  2  0
 27 30  1  0
 28 32  1  0
 29 33  1  0
 30 34  2  0
 31 36  1  0
 32 35  2  0
 33 36  2  0
 34 35  1  0
M  END
$$$$

     RDKit          3D

 29 32  0  0  0  0  0  0  0  0999 V2000
   21.6588   15.9701   41.2689 C   0  0  0  0  0  0  0  0  0  0  0  0
   21.9845   16.1128   39.8858 C   0  0  0  0  0  0  0  0  0  0  0  0
   22.2654   16.7426   42.2527 C   0  0  0  0  0  0  0  0  0  0  0  0
   22.2412   18.6658   29.1388 C   0  0  0  0  0  0  0  0  0  0  0  0
   22.2234   18.9192   27.7768 C   0  0  0  0  0  0  0  0  0  0  0  0
   22.6562   20.1376   27.2972 C   0  0  0  0  0  0  0  0  0  0  0  0
   22.8636   19.2453   31.4529 C   0  0  0  0  0  0  0  0  0  0  0  0
   22.7696   19.6370   29.9961 C   0  0  0  0  0  0  0  0  0  0  0  0
   23.0055   17.0215   39.5102 C   0  0  0  0  0  0  0  0  0  0  0  0
   23.1487   19.4295   34.2743 C   0  0  0  0  0  0  0  0  0  0  0  0
   23.0955   19.2202   35.6113 C   0  0  0  0  0  0  0  0  0  0  0  0
   23.1452   20.9075   29.5110 C   0  0  0  0  0  0  0  0  0  0  0  0
   23.1097   21.1177   28.1452 C   0  0  0  0  0  0  0  0  0  0  0  0
   23.4859   17.1604   38.0964 C   0  0  0  0  0  0  0  0  0  0  0  0
   23.5661   17.8029   40.5277 C   0  0  0  0  0  0  0  0  0  0  0  0
   24.1651   18.7005   36.3576 C   0  0  0  0  0  0  0  0  0  0  0  0
   24.2388   19.0514   33.4998 C   0  0  0  0  0  0  0  0  0  0  0  0
   25.3768   18.4147   35.6798 C   0  0  0  0  0  0  0  0  0  0  0  0
   25.4275   18.5800   34.2213 C   0  0  0  0  0  0  0  0  0  0  0  0
   25.3597   18.7940   31.3024 C   0  0  0  0  0  0  0  0  0  0  0  0
   25.7144   17.4442   31.0507 C   0  0  0  0  0  0  0  0  0  0  0  0
   26.2249   19.8365   30.8963 C   0  0  0  0  0  0  0  0  0  0  0  0
   26.8876   17.1933   30.3278 C   0  0  0  0  0  0  0  0  0  0  0  0
   27.3868   19.5552   30.1319 C   0  0  0  0  0  0  0  0  0  0  0  0
   27.6871   18.2377   29.8471 C   0  0  0  0  0  0  0  0  0  0  0  0
   23.1913   17.6776   41.8144 N   0  0  0  0  0  0  0  0  0  0  0  0
   23.9692   18.4156   37.6920 N   0  0  0  0  0  0  0  0  0  0  0  0
   24.1946   19.1436   32.0530 N   0  0  0  0  0  0  0  0  0  0  0  0
   28.4619   20.7419   29.3906 Cl  0  0  0  0  0  0  0  0  0  0  0  0
  1  2  2  0
  1  3  1  0
  2  9  1  0
  3 26  2  0
  4  5  2  0
  4  8  1  0
  5  6  1  0
  6 13  2  0
  7  8  1  0
  7 28  1  0
  8 12  2  0
  9 14  1  0
  9 15  2  0
 10 11  2  0
 10 17  1  0
 11 16  1  0
 12 13  1  0
 14 27  2  3
 15 26  1  0
 16 18  2  0
 16 27  1  0
 17 19  2  0
 17 28  1  0
 18 19  1  0
 20 21  2  0
 20 22  1  0
 20 28  1  0
 21 23  1  0
 22 24  2  0
 23 25  2  0
 24 25  1  0
 24 29  1  0
M  END
$$$$

     RDKit          3D

 16 17  0  0  0  0  0  0  0  0999 V2000
   21.5999   19.8940   30.8186 C   0  0  0  0  0  0  0  0  0  0  0  0
   21.8878   19.5949   32.1026 C   0  0  0  0  0  0  0  0  0  0  0  0
   22.4874   16.6541   38.5427 C   0  0  0  0  0  0  0  0  0  0  0  0
   22.5852   19.5881   34.9149 C   0  0  0  0  0  0  0  0  0  0  0  0
   22.5754   19.8134   29.8969 C   0  0  0  0  0  0  0  0  0  0  0  0
   22.8538   19.3918   36.2772 C   0  0  0  0  0  0  0  0  0  0  0  0
   23.1577   19.2508   32.4993 C   0  0  0  0  0  0  0  0  0  0  0  0
   23.4038   17.7355   38.9370 C   0  0  0  0  0  0  0  0  0  0  0  0
   23.4094   19.0160   33.9439 C   0  0  0  0  0  0  0  0  0  0  0  0
   23.9233   18.5815   36.6634 C   0  0  0  0  0  0  0  0  0  0  0  0
   23.9134   19.4888   30.2619 C   0  0  0  0  0  0  0  0  0  0  0  0
   24.1787   19.1911   31.5674 C   0  0  0  0  0  0  0  0  0  0  0  0
   24.4534   18.1991   34.3174 C   0  0  0  0  0  0  0  0  0  0  0  0
   24.7105   17.9963   35.6806 C   0  0  0  0  0  0  0  0  0  0  0  0
   23.6168   17.9581   40.1402 O   0  0  0  0  0  0  0  0  0  0  0  0
   24.1502   18.4275   38.0124 O   0  0  0  0  0  0  0  0  0  0  0  0
  1  2  2  0
  1  5  1  0
  2  7  1  0
  3  8  1  0
  4  6  2  0
  4  9  1  0
  5 11  2  0
  6 10  1  0
  7  9  1  0
  7 12  2  0
  8 15  2  0
  8 16  1  0
  9 13  2  0
 10 14  2  0
 10 16  1  0
 11 12  1  0
 13 14  1  0
M  END
$$$$

     RDKit          3D

 41 45  0  0  0  0  0  0  0  0999 V2000
   21.5735   15.9061   40.5207 C   0  0  0  0  0  0  0  0  0  0  0  0
   21.4726   17.6569   29.4117 C   0  0  0  0  0  0  0  0  0  0  0  0
   21.4882   18.7041   30.4970 C   0  0  0  0  0  0  0  0  0  0  0  0
   22.0457   16.1041   39.2537 C   0  0  0  0  0  0  0  0  0  0  0  0
   22.0663   16.5313   41.6373 C   0  0  0  0  0  0  0  0  0  0  0  0
   22.0650   23.9236   31.0506 C   0  0  0  0  0  0  0  0  0  0  0  0
   22.2310   19.9276   34.8400 C   0  0  0  0  0  0  0  0  0  0  0  0
   22.2117   22.5396   31.1259 C   0  0  0  0  0  0  0  0  0  0  0  0
   22.3615   24.7012   32.1419 C   0  0  0  0  0  0  0  0  0  0  0  0
   22.9114   20.4727   32.3840 C   0  0  2  0  0  0  0  0  0  0  0  0
   22.7204   21.9278   32.2817 C   0  0  0  0  0  0  0  0  0  0  0  0
   22.8600   24.1358   33.3056 C   0  0  0  0  0  0  0  0  0  0  0  0
   23.1015   16.9757   39.0705 C   0  0  0  0  0  0  0  0  0  0  0  0
   23.0771   17.4674   41.4271 C   0  0  0  0  0  0  0  0  0  0  0  0
   23.0261   19.3817   30.1354 C   0  0  2  0  0  0  0  0  0  0  0  0
   23.1371   19.9105   33.7390 C   0  0  1  0  0  0  0  0  0  0  0  0
   22.9953   22.7456   33.3810 C   0  0  0  0  0  0  0  0  0  0  0  0
   23.6983   17.0259   37.7069 C   0  0  0  0  0  0  0  0  0  0  0  0
   23.5913   17.6951   40.1637 C   0  0  0  0  0  0  0  0  0  0  0  0
   23.7209   20.2640   28.7802 C   0  0  0  0  0  0  0  0  0  0  0  0
   24.1452   19.1966   35.5785 C   0  0  0  0  0  0  0  0  0  0  0  0
   24.3328   19.4562   34.2543 C   0  0  0  0  0  0  0  0  0  0  0  0
   24.9697   17.7493   37.4702 C   0  0  0  0  0  0  0  0  0  0  0  0
   25.1786   18.7354   36.4817 C   0  0  0  0  0  0  0  0  0  0  0  0
   25.3908   16.7928   33.3483 C   0  0  0  0  0  0  0  0  0  0  0  0
   25.5773   15.6007   32.6463 C   0  0  0  0  0  0  0  0  0  0  0  0
   25.6760   19.2604   33.5739 C   0  0  1  0  0  0  0  0  0  0  0  0
   25.7473   18.0038   32.7437 C   0  0  0  0  0  0  0  0  0  0  0  0
   26.1367   15.5988   31.3562 C   0  0  0  0  0  0  0  0  0  0  0  0
   26.0225   17.4210   38.3148 C   0  0  0  0  0  0  0  0  0  0  0  0
   26.2091   20.5540   33.0485 C   0  0  0  0  0  0  0  0  0  0  0  0
   26.2750   18.0128   31.4627 C   0  0  0  0  0  0  0  0  0  0  0  0
   26.3946   19.4218   36.4619 C   0  0  0  0  0  0  0  0  0  0  0  0
   26.4622   16.8131   30.7687 C   0  0  0  0  0  0  0  0  0  0  0  0
   27.2202   18.0590   38.2124 C   0  0  0  0  0  0  0  0  0  0  0  0
   27.4174   19.0728   37.3165 C   0  0  0  0  0  0  0  0  0  0  0  0
   23.5832   19.1293   29.2293 O   0  0  0  0  0  0  0  0  0  0  0  0
   23.5070   19.8218   31.3836 O   0  0  0  0  0  0  0  0  0  0  0  0
   26.2901   21.4538   33.9206 O   0  0  0  0  0  0  0  0  0  0  0  0
   26.5708   20.6926   31.9021 O   0  0  0  0  0  0  0  0  0  0  0  0
   22.8939   19.5100   35.9171 N   0  0  0  0  0  0  0  0  0  0  0  0
  1  4  2  0
  1  5  1  0
  2  3  1  0
 15  3  1  1
  4 13  1  0
  5 14  2  0
  6  8  2  0
  6  9  1  0
 16  7  1  1
  7 41  1  0
  8 11  1  0
  9 12  2  0
 10 11  1  0
 10 16  1  0
 10 38  1  6
 11 17  2  0
 12 17  1  0
 13 18  1  0
 13 19  2  0
 14 19  1  0
 15 37  1  0
 15 38  1  0
 16 22  1  0
 18 23  1  0
 20 37  1  0
 21 22  2  0
 21 24  1  0
 21 41  1  0
 22 27  1  0
 23 24  1  0
 23 30  2  0
 24 33  2  0
 25 26  2  0
 25 28  1  0
 26 29  1  0
 27 28  1  0
 27 31  1  6
 28 32  2  0
 29 34  2  0
 30 35  1  0
 31 39  2  0
 31 40  1  0
 32 34  1  0
 33 36  1  0
 35 36  2  0
M  END
$$$$

     RDKit          3D

 45 48  0  0  0  0  0  0  0  0999 V2000
   21.0142   18.0631   29.8021 C   0  0  0  0  0  0  0  0  0  0  0  0
   21.4621   15.6610   41.9694 C   0  0  0  0  0  0  0  0  0  0  0  0
   21.5878   15.8896   40.4532 C   0  0  0  0  0  0  0  0  0  0  0  0
   21.7045   17.6603   28.4953 C   0  0  0  0  0  0  0  0  0  0  0  0
   21.5497   19.3347   30.4377 C   0  0  0  0  0  0  0  0  0  0  0  0
   21.6207   19.4611   36.9618 C   0  0  0  0  0  0  0  0  0  0  0  0
   21.5336   20.5136   29.7053 C   0  0  0  0  0  0  0  0  0  0  0  0
   21.9918   19.3575   31.7893 C   0  0  0  0  0  0  0  0  0  0  0  0
   22.4351   16.5804   41.3734 C   0  0  0  0  0  0  0  0  0  0  0  0
   22.3382   17.6854   38.5590 C   0  0  0  0  0  0  0  0  0  0  0  0
   22.3956   20.5714   32.3455 C   0  0  0  0  0  0  0  0  0  0  0  0
   22.4064   21.7048   31.5077 C   0  0  0  0  0  0  0  0  0  0  0  0
   22.6955   18.6677   37.6416 C   0  0  0  0  0  0  0  0  0  0  0  0
   22.5159   19.7801   34.6663 C   0  0  0  0  0  0  0  0  0  0  0  0
   22.6430   21.4944   36.3820 C   0  0  0  0  0  0  0  0  0  0  0  0
   23.3172   16.9259   39.1474 C   0  0  0  0  0  0  0  0  0  0  0  0
   23.2547   22.0215   34.1039 C   0  0  0  0  0  0  0  0  0  0  0  0
   23.4037   22.3745   35.5395 C   0  0  0  0  0  0  0  0  0  0  0  0
   24.0061   18.8826   37.2966 C   0  0  0  0  0  0  0  0  0  0  0  0
   24.2459   23.5413   35.7954 C   0  0  0  0  0  0  0  0  0  0  0  0
   24.6616   17.1302   38.8121 C   0  0  0  0  0  0  0  0  0  0  0  0
   24.6997   22.7524   36.1669 C   0  0  0  0  0  0  0  0  0  0  0  0
   24.9316   19.9342   29.1582 C   0  0  0  0  0  0  0  0  0  0  0  0
   25.0090   18.1144   37.8799 C   0  0  0  0  0  0  0  0  0  0  0  0
   25.2478   17.0821   32.5507 C   0  0  0  0  0  0  0  0  0  0  0  0
   25.3630   17.9727   33.6581 C   0  0  0  0  0  0  0  0  0  0  0  0
   25.5766   17.5117   31.2599 C   0  0  0  0  0  0  0  0  0  0  0  0
   25.9222   18.8388   31.0706 C   0  0  0  0  0  0  0  0  0  0  0  0
   25.7915   19.2913   33.4084 C   0  0  0  0  0  0  0  0  0  0  0  0
   25.9477   19.7200   32.1334 C   0  0  0  0  0  0  0  0  0  0  0  0
   26.1089   20.2854   34.4299 C   0  0  0  0  0  0  0  0  0  0  0  0
   26.4190   18.3396   37.5693 C   0  0  0  0  0  0  0  0  0  0  0  0
   26.2362   19.3293   29.6716 C   0  0  0  0  0  0  0  0  0  0  0  0
   26.7898   18.9007   36.2531 C   0  0  2  0  0  0  0  0  0  0  0  0
   27.4227   20.2637   29.5640 C   0  0  0  0  0  0  0  0  0  0  0  0
   28.2595   19.2164   36.1234 C   0  0  0  0  0  0  0  0  0  0  0  0
   22.8014   18.5560   34.5083 O   0  0  0  0  0  0  0  0  0  0  0  0
   22.9634   15.9931   40.1033 O   0  0  0  0  0  0  0  0  0  0  0  0
   26.4890   21.4143   34.1533 O   0  0  0  0  0  0  0  0  0  0  0  0
   27.2792   17.9617   38.3408 O   0  0  0  0  0  0  0  0  0  0  0  0
   21.9499   21.6702   30.2608 N   0  0  0  0  0  0  0  0  0  0  0  0
   22.2657   20.2599   35.9318 N   0  0  0  0  0  0  0  0  0  0  0  0
   22.7114   20.7761   33.7011 N   0  0  0  0  0  0  0  0  0  0  0  0
   25.9429   19.9326   35.7626 N   0  0  0  0  0  0  0  0  0  0  0  0
   24.8173   15.4831   32.7290 Cl  0  0  0  0  0  0  0  0  0  0  0  0
  1  4  1  0
  1  5  1  0
  2  9  1  0
  3  9  1  0
  3 38  1  0
  5  7  2  0
  5  8  1  0
  6 13  1  0
  6 42  1  0
  7 41  1  0
  8 11  2  0
 10 13  2  0
 10 16  1  0
 11 12  1  0
 11 43  1  0
 12 41  2  0
 13 19  1  0
 14 37  2  0
 14 42  1  0
 14 43  1  0
 15 18  1  0
 15 42  1  0
 16 21  2  0
 16 38  1  0
 17 18  2  0
 17 43  1  0
 18 20  1  0
 19 24  2  0
 20 22  1  0
 21 24  1  0
 23 33  1  0
 24 32  1  0
 25 26  2  0
 25 27  1  0
 25 45  1  0
 26 29  1  0
 27 28  2  0
 28 30  1  0
 28 33  1  0
 29 30  2  0
 29 31  1  0
 31 39  2  0
 31 44  1  0
 32 34  1  0
 32 40  2  0
 33 35  1  0
 34 36  1  1
 34 44  1  0
M  END
$$$$

     RDKit          3D

 36 42  0  0  0  0  0  0  0  0999 V2000
   21.3162   18.4838   30.3097 C   0  0  0  0  0  0  0  0  0  0  0  0
   22.3077   20.4124   31.2193 C   0  0  0  0  0  0  0  0  0  0  0  0
   22.3721   21.7374   31.7806 C   0  0  0  0  0  0  0  0  0  0  0  0
   22.2346   22.8793   30.9755 C   0  0  0  0  0  0  0  0  0  0  0  0
   22.3328   24.1721   31.5073 C   0  0  0  0  0  0  0  0  0  0  0  0
   22.6383   21.9127   33.1584 C   0  0  0  0  0  0  0  0  0  0  0  0
   22.5662   24.3614   32.8716 C   0  0  0  0  0  0  0  0  0  0  0  0
   22.8995   16.6555   38.9226 C   0  0  0  0  0  0  0  0  0  0  0  0
   22.9219   17.9142   38.2798 C   0  0  0  0  0  0  0  0  0  0  0  0
   22.7582   20.8178   34.0275 C   0  0  0  0  0  0  0  0  0  0  0  0
   22.9379   20.9988   35.4198 C   0  0  0  0  0  0  0  0  0  0  0  0
   22.7275   23.2416   33.7245 C   0  0  0  0  0  0  0  0  0  0  0  0
   22.9337   23.3995   35.1147 C   0  0  0  0  0  0  0  0  0  0  0  0
   22.9712   19.8434   36.3159 C   0  0  0  0  0  0  0  0  0  0  0  0
   23.0328   22.2916   35.9510 C   0  0  0  0  0  0  0  0  0  0  0  0
   23.5819   18.5835   30.7177 C   0  0  0  0  0  0  0  0  0  0  0  0
   24.1038   15.9434   39.0510 C   0  0  0  0  0  0  0  0  0  0  0  0
   24.1398   18.4297   37.7542 C   0  0  0  0  0  0  0  0  0  0  0  0
   24.9390   17.6873   33.2366 C   0  0  0  0  0  0  0  0  0  0  0  0
   24.9906   18.0120   30.7368 C   0  0  0  0  0  0  0  0  0  0  0  0
   25.3125   16.4686   38.5932 C   0  0  0  0  0  0  0  0  0  0  0  0
   25.4059   17.8361   34.5525 C   0  0  0  0  0  0  0  0  0  0  0  0
   25.3494   17.7112   37.9081 C   0  0  0  0  0  0  0  0  0  0  0  0
   25.6204   18.2077   32.1527 C   0  0  0  0  0  0  0  0  0  0  0  0
   26.6715   18.2008   37.4742 C   0  0  0  0  0  0  0  0  0  0  0  0
   26.6273   18.4734   34.8178 C   0  0  0  0  0  0  0  0  0  0  0  0
   26.8294   18.8419   32.3815 C   0  0  0  0  0  0  0  0  0  0  0  0
   27.1475   18.6079   36.1915 C   0  0  0  0  0  0  0  0  0  0  0  0
   27.3363   18.9860   33.6842 C   0  0  0  0  0  0  0  0  0  0  0  0
   27.7877   18.3529   38.3548 C   0  0  0  0  0  0  0  0  0  0  0  0
   28.8630   18.8545   37.6381 C   0  0  0  0  0  0  0  0  0  0  0  0
   21.1884   19.7864   30.7821 N   0  0  0  0  0  0  0  0  0  0  0  0
   22.5320   17.8830   30.2982 N   0  0  0  0  0  0  0  0  0  0  0  0
   23.4934   19.8057   31.1352 N   0  0  0  0  0  0  0  0  0  0  0  0
   24.0977   19.5827   36.9929 N   0  0  0  0  0  0  0  0  0  0  0  0
   28.4483   18.9863   36.3292 N   0  0  0  0  0  0  0  0  0  0  0  0
  1 32  2  0
  1 33  1  0
  2  3  1  0
  2 32  1  0
  2 34  2  0
  3  4  2  0
  3  6  1  0
  4  5  1  0
  5  7  2  0
  6 10  2  0
  6 12  1  0
  7 12  1  0
  8  9  1  0
  8 17  2  0
  9 18  2  0
 10 11  1  0
 11 14  1  0
 11 15  2  0
 12 13  2  0
 13 15  1  0
 14 35  2  3
 16 20  1  0
 16 33  2  0
 16 34  1  0
 17 21  1  0
 18 23  1  0
 18 35  1  0
 19 22  1  0
 19 24  2  0
 20 24  1  0
 21 23  2  0
 22 26  2  0
 23 25  1  0
 24 27  1  0
 25 28  2  0
 25 30  1  0
 26 28  1  0
 26 29  1  0
 27 29  2  0
 28 36  1  0
 30 31  1  0
 31 36  1  0
M  END
$$$$

     RDKit          3D

 33 36  0  0  0  0  0  0  0  0999 V2000
   21.3114   23.9277   31.5835 C   0  0  0  0  0  0  0  0  0  0  0  0
   21.9281   19.9504   36.6628 C   0  0  0  0  0  0  0  0  0  0  0  0
   22.3062   16.4413   39.6849 C   0  0  0  0  0  0  0  0  0  0  0  0
   22.3324   19.1016   30.6575 C   0  0  0  0  0  0  0  0  0  0  0  0
   22.8346   17.1961   40.7285 C   0  0  0  0  0  0  0  0  0  0  0  0
   22.8604   19.9109   33.3489 C   0  0  0  0  0  0  0  0  0  0  0  0
   22.8218   20.7164   32.2309 C   0  0  0  0  0  0  0  0  0  0  0  0
   22.7313   22.1061   32.4271 C   0  0  1  0  0  0  0  0  0  0  0  0
   23.0025   16.3614   38.4627 C   0  0  0  0  0  0  0  0  0  0  0  0
   23.0310   19.5433   35.7529 C   0  0  1  0  0  0  0  0  0  0  0  0
   23.0712   20.5060   34.6164 C   0  0  0  0  0  0  0  0  0  0  0  0
   23.1419   21.9094   34.6642 C   0  0  0  0  0  0  0  0  0  0  0  0
   23.2034   22.7051   33.5888 C   0  0  0  0  0  0  0  0  0  0  0  0
   24.2055   17.0530   38.2946 C   0  0  0  0  0  0  0  0  0  0  0  0
   24.0302   17.9137   40.5632 C   0  0  0  0  0  0  0  0  0  0  0  0
   24.7086   17.8357   39.3469 C   0  0  0  0  0  0  0  0  0  0  0  0
   24.9394   16.4794   34.5205 C   0  0  0  0  0  0  0  0  0  0  0  0
   25.0488   16.0073   33.2149 C   0  0  0  0  0  0  0  0  0  0  0  0
   25.0133   16.8647   37.0844 C   0  0  0  0  0  0  0  0  0  0  0  0
   25.3467   17.7744   34.8343 C   0  0  0  0  0  0  0  0  0  0  0  0
   25.2079   18.1616   36.2823 C   0  0  1  0  0  0  0  0  0  0  0  0
   25.5959   16.8211   32.2146 C   0  0  0  0  0  0  0  0  0  0  0  0
   25.9056   18.6310   33.8409 C   0  0  0  0  0  0  0  0  0  0  0  0
   25.9840   18.1358   32.5096 C   0  0  0  0  0  0  0  0  0  0  0  0
   26.4489   18.9846   31.4987 C   0  0  0  0  0  0  0  0  0  0  0  0
   26.2822   19.9742   34.0414 C   0  0  0  0  0  0  0  0  0  0  0  0
   26.7047   20.7812   32.9925 C   0  0  0  0  0  0  0  0  0  0  0  0
   26.7721   20.2685   31.7198 C   0  0  0  0  0  0  0  0  0  0  0  0
   21.0138   19.0554   36.6960 O   0  0  0  0  0  0  0  0  0  0  0  0
   21.8990   21.0453   37.1906 O   0  0  0  0  0  0  0  0  0  0  0  0
   22.8948   20.3557   30.9337 O   0  0  0  0  0  0  0  0  0  0  0  0
   22.1988   22.8097   31.3530 N   0  0  0  0  0  0  0  0  0  0  0  0
   24.2199   19.2042   36.4823 N   0  0  0  0  0  0  0  0  0  0  0  0
  1 32  1  0
  2 10  1  0
  2 29  2  0
  2 30  1  0
  3  5  2  0
  3  9  1  0
  4 31  1  0
  5 15  1  0
  6  7  2  0
  6 11  1  0
  7  8  1  0
  7 31  1  0
  8 13  1  0
  8 32  1  6
  9 14  2  0
 10 11  1  0
 10 33  1  1
 11 12  2  0
 12 13  1  0
 14 16  1  0
 14 19  1  0
 15 16  2  0
 17 18  2  0
 17 20  1  0
 18 22  1  0
 21 19  1  1
 20 21  1  0
 20 23  2  0
 21 33  1  0
 22 24  2  0
 23 24  1  0
 23 26  1  0
 24 25  1  0
 25 28  2  0
 26 27  2  0
 27 28  1  0
M  END
$$$$

     RDKit          3D

 40 44  0  0  0  0  0  0  0  0999 V2000
   21.6480   15.8757   40.3202 C   0  0  0  0  0  0  0  0  0  0  0  0
   21.6849   16.4395   41.5862 C   0  0  0  0  0  0  0  0  0  0  0  0
   22.3527   23.0538   31.7846 C   0  0  0  0  0  0  0  0  0  0  0  0
   22.6162   16.2155   39.3664 C   0  0  0  0  0  0  0  0  0  0  0  0
   22.7138   17.3853   41.8988 C   0  0  0  0  0  0  0  0  0  0  0  0
   23.3472   22.0271   32.2218 C   0  0  0  0  0  0  0  0  0  0  0  0
   23.6356   17.1510   39.6446 C   0  0  0  0  0  0  0  0  0  0  0  0
   23.6701   17.7064   40.9198 C   0  0  0  0  0  0  0  0  0  0  0  0
   24.4488   16.7937   33.1095 C   0  0  0  0  0  0  0  0  0  0  0  0
   24.4133   18.1397   33.0824 C   0  0  0  0  0  0  0  0  0  0  0  0
   24.6070   17.4397   38.5257 C   0  0  0  0  0  0  0  0  0  0  0  0
   24.7551   20.2913   32.1297 C   0  0  2  0  0  0  0  0  0  0  0  0
   25.1735   18.8923   32.1802 C   0  0  0  0  0  0  0  0  0  0  0  0
   25.3078   16.1273   32.2712 C   0  0  0  0  0  0  0  0  0  0  0  0
   25.4033   21.2706   33.0339 C   0  0  2  0  0  0  0  0  0  0  0  0
   25.9209   20.9845   34.4907 C   0  0  0  0  0  0  0  0  0  0  0  0
   26.1917   16.7780   31.4491 C   0  0  0  0  0  0  0  0  0  0  0  0
   26.1980   18.1855   31.4225 C   0  0  2  0  0  0  0  0  0  0  0  0
   26.3491   19.2141   36.7657 C   0  0  0  0  0  0  0  0  0  0  0  0
   26.6787   18.4974   37.8860 C   0  0  0  0  0  0  0  0  0  0  0  0
   27.3190   18.8485   30.6565 C   0  0  0  0  0  0  0  0  0  0  0  0
   27.3582   19.6267   35.8519 C   0  0  0  0  0  0  0  0  0  0  0  0
   27.2642   20.1462   30.2009 C   0  0  0  0  0  0  0  0  0  0  0  0
   28.0064   18.1926   38.1528 C   0  0  0  0  0  0  0  0  0  0  0  0
   28.4545   18.1038   30.2816 C   0  0  0  0  0  0  0  0  0  0  0  0
   28.2721   20.6863   29.4449 C   0  0  0  0  0  0  0  0  0  0  0  0
   28.7102   19.3079   36.1232 C   0  0  0  0  0  0  0  0  0  0  0  0
   29.0165   18.5795   37.2734 C   0  0  0  0  0  0  0  0  0  0  0  0
   29.3960   19.9658   29.0794 C   0  0  0  0  0  0  0  0  0  0  0  0
   29.4894   18.6271   29.5001 C   0  0  0  0  0  0  0  0  0  0  0  0
   21.5501   19.2187   31.6175 O   0  0  0  0  0  0  0  0  0  0  0  0
   21.4747   21.1133   30.0200 O   0  0  0  0  0  0  0  0  0  0  0  0
   23.0317   19.2406   29.6553 O   0  0  0  0  0  0  0  0  0  0  0  0
   24.6725   16.6096   37.5950 O   0  0  0  0  0  0  0  0  0  0  0  0
   25.7683   18.0828   38.8956 O   0  0  0  0  0  0  0  0  0  0  0  0
   23.5476   20.8072   31.6222 N   0  0  0  0  0  0  0  0  0  0  0  0
   24.4769   22.3062   33.0120 N   0  0  0  0  0  0  0  0  0  0  0  0
   27.0627   20.2625   34.6615 N   0  0  0  0  0  0  0  0  0  0  0  0
   22.3506   20.0465   30.6793 S   0  0  0  0  0  0  0  0  0  0  0  0
   30.6412   20.6910   28.0443 S   0  0  0  0  0  0  0  0  0  0  0  0
  1  2  2  0
  1  4  1  0
  2  5  1  0
  3  6  1  0
  4  7  1  0
  5  8  1  0
  6 36  1  0
  6 37  2  0
  7  8  2  0
  7 11  1  0
  9 10  2  0
  9 14  1  0
 10 13  1  0
 11 34  2  0
 11 35  1  0
 12 13  1  1
 12 15  1  0
 12 36  1  0
 13 18  1  0
 14 17  2  0
 15 16  1  1
 15 37  1  0
 16 38  1  0
 17 18  1  0
 18 21  1  1
 19 20  2  0
 19 22  1  0
 20 24  1  0
 20 35  1  0
 21 23  2  0
 21 25  1  0
 22 27  2  0
 22 38  1  0
 23 26  1  0
 24 28  2  0
 25 30  2  0
 26 29  2  0
 27 28  1  0
 29 30  1  0
 29 40  1  0
 31 39  1  0
 32 39  1  0
 33 39  1  0
 36 39  1  0
M  END
$$$$

     RDKit          3D

 40 43  0  0  0  0  0  0  0  0999 V2000
   21.5308   16.9040   41.9236 C   0  0  0  0  0  0  0  0  0  0  0  0
   21.9338   16.2469   39.5492 C   0  0  0  0  0  0  0  0  0  0  0  0
   22.3526   16.9322   40.6905 C   0  0  2  0  0  0  0  0  0  0  0  0
   22.3696   19.9408   32.7887 C   0  0  0  0  0  0  0  0  0  0  0  0
   22.7472   16.1907   38.4307 C   0  0  0  0  0  0  0  0  0  0  0  0
   22.8214   20.0199   30.3931 C   0  0  1  0  0  0  0  0  0  0  0  0
   22.7558   19.9767   34.1117 C   0  0  0  0  0  0  0  0  0  0  0  0
   22.7180   21.4477   29.9043 C   0  0  0  0  0  0  0  0  0  0  0  0
   23.2810   19.9666   31.7958 C   0  0  0  0  0  0  0  0  0  0  0  0
   23.2150   20.4718   27.6558 C   0  0  0  0  0  0  0  0  0  0  0  0
   23.2197   21.5840   28.5322 C   0  0  0  0  0  0  0  0  0  0  0  0
   23.5774   17.5915   40.6875 C   0  0  0  0  0  0  0  0  0  0  0  0
   23.9862   16.8158   38.4686 C   0  0  1  0  0  0  0  0  0  0  0  0
   24.1097   19.9878   34.4147 C   0  0  0  0  0  0  0  0  0  0  0  0
   24.3972   17.5140   39.5927 C   0  0  0  0  0  0  0  0  0  0  0  0
   24.6597   19.9700   32.1462 C   0  0  0  0  0  0  0  0  0  0  0  0
   24.5872   20.1369   35.8874 C   0  0  0  0  0  0  0  0  0  0  0  0
   24.9357   16.6560   37.2930 C   0  0  0  0  0  0  0  0  0  0  0  0
   25.2984   18.9239   36.3087 C   0  0  0  0  0  0  0  0  0  0  0  0
   25.7981   19.8156   31.2156 C   0  0  0  0  0  0  0  0  0  0  0  0
   26.1850   18.5236   30.9259 C   0  0  0  0  0  0  0  0  0  0  0  0
   26.6985   19.0557   36.7572 C   0  0  0  0  0  0  0  0  0  0  0  0
   26.4991   20.8799   30.6327 C   0  0  0  0  0  0  0  0  0  0  0  0
   27.1481   18.8861   38.0559 C   0  0  0  0  0  0  0  0  0  0  0  0
   27.2371   18.2483   30.0978 C   0  0  0  0  0  0  0  0  0  0  0  0
   27.6064   19.2764   35.7086 C   0  0  0  0  0  0  0  0  0  0  0  0
   27.6076   20.6166   29.7670 C   0  0  0  0  0  0  0  0  0  0  0  0
   27.9767   19.2809   29.5604 C   0  0  0  0  0  0  0  0  0  0  0  0
   28.5692   18.8848   38.3212 C   0  0  0  0  0  0  0  0  0  0  0  0
   28.9538   19.2967   35.9639 C   0  0  0  0  0  0  0  0  0  0  0  0
   29.4265   19.0529   37.2444 C   0  0  0  0  0  0  0  0  0  0  0  0
   30.9737   19.0730   37.4012 C   0  0  0  0  0  0  0  0  0  0  0  0
   20.3577   16.8164   41.8279 O   0  0  0  0  0  0  0  0  0  0  0  0
   20.3532   20.0175   29.6708 O   0  0  0  0  0  0  0  0  0  0  0  0
   23.2188   22.7853   27.9616 N   0  0  0  0  0  0  0  0  0  0  0  0
   24.7463   17.7445   36.2669 N   0  0  0  0  0  0  0  0  0  0  0  0
   25.0079   20.0776   33.4438 N   0  0  0  0  0  0  0  0  0  0  0  0
   27.5647   16.4885   29.7568 Cl  0  0  0  0  0  0  0  0  0  0  0  0
   29.3530   18.8719   28.5189 Cl  0  0  0  0  0  0  0  0  0  0  0  0
   21.3113   19.0537   29.8188 P   0  0  0  0  0  0  0  0  0  0  0  0
  3  1  1  1
  1 33  2  0
  2  3  1  0
  2  5  2  0
  3 12  1  0
  4  7  2  0
  4  9  1  0
  5 13  1  0
  6  8  1  1
  6  9  1  0
  6 40  1  0
  7 14  1  0
  8 11  1  0
  9 16  2  0
 10 11  1  0
 11 35  2  0
 12 15  2  0
 13 15  1  0
 13 18  1  1
 14 17  1  0
 14 37  2  0
 16 20  1  0
 16 37  1  0
 17 19  1  0
 18 36  1  0
 19 22  1  0
 19 36  1  0
 20 21  2  0
 20 23  1  0
 21 25  1  0
 22 24  2  0
 22 26  1  0
 23 27  2  0
 24 29  1  0
 25 28  2  0
 25 38  1  0
 26 30  2  0
 27 28  1  0
 28 39  1  0
 29 31  2  0
 30 31  1  0
 31 32  1  0
 34 40  1  0
M  END
$$$$

     RDKit          3D

 36 40  0  0  0  0  0  0  0  0999 V2000
   21.6565   16.0609   40.2658 C   0  0  0  0  0  0  0  0  0  0  0  0
   21.8845   16.7694   41.4431 C   0  0  0  0  0  0  0  0  0  0  0  0
   22.0079   21.3999   29.8992 C   0  0  0  0  0  0  0  0  0  0  0  0
   22.3041   20.6973   28.7538 C   0  0  0  0  0  0  0  0  0  0  0  0
   22.3831   22.0720   32.2073 C   0  0  1  0  0  0  0  0  0  0  0  0
   22.5335   16.1213   39.2089 C   0  0  0  0  0  0  0  0  0  0  0  0
   22.4878   20.6242   36.5746 C   0  0  0  0  0  0  0  0  0  0  0  0
   22.7686   19.2855   37.2111 C   0  0  0  0  0  0  0  0  0  0  0  0
   22.8823   21.3884   30.9959 C   0  0  0  0  0  0  0  0  0  0  0  0
   23.0052   17.6049   41.5207 C   0  0  0  0  0  0  0  0  0  0  0  0
   23.0539   20.8403   34.1420 C   0  0  0  0  0  0  0  0  0  0  0  0
   23.1871   22.0198   33.3857 C   0  0  0  0  0  0  0  0  0  0  0  0
   23.4565   19.9461   28.6560 C   0  0  0  0  0  0  0  0  0  0  0  0
   23.6752   16.9133   39.2803 C   0  0  0  0  0  0  0  0  0  0  0  0
   23.5887   20.9377   35.5452 C   0  0  2  0  0  0  0  0  0  0  0  0
   23.9398   17.6817   40.4180 C   0  0  0  0  0  0  0  0  0  0  0  0
   24.0528   20.6764   30.8414 C   0  0  0  0  0  0  0  0  0  0  0  0
   24.3196   19.9629   29.6914 C   0  0  0  0  0  0  0  0  0  0  0  0
   24.6630   16.8909   38.1048 C   0  0  0  0  0  0  0  0  0  0  0  0
   24.6826   19.9221   35.8892 C   0  0  2  0  0  0  0  0  0  0  0  0
   25.0344   18.3231   37.6713 C   0  0  0  0  0  0  0  0  0  0  0  0
   25.3932   16.7607   32.4735 C   0  0  0  0  0  0  0  0  0  0  0  0
   25.6248   18.1619   32.5688 C   0  0  1  0  0  0  0  0  0  0  0  0
   25.4812   19.2949   34.7413 C   0  0  0  0  0  0  0  0  0  0  0  0
   25.9850   16.0049   31.4987 C   0  0  0  0  0  0  0  0  0  0  0  0
   26.4640   18.7994   31.5291 C   0  0  0  0  0  0  0  0  0  0  0  0
   26.6122   20.2029   31.3975 C   0  0  0  0  0  0  0  0  0  0  0  0
   26.8767   16.5772   30.6067 C   0  0  0  0  0  0  0  0  0  0  0  0
   27.1333   17.9622   30.6248 C   0  0  0  0  0  0  0  0  0  0  0  0
   27.4140   20.7523   30.3660 C   0  0  0  0  0  0  0  0  0  0  0  0
   28.0643   18.4868   29.6500 C   0  0  0  0  0  0  0  0  0  0  0  0
   28.2149   19.9005   29.5320 C   0  0  0  0  0  0  0  0  0  0  0  0
   21.9423   23.3314   31.9516 O   0  0  0  0  0  0  0  0  0  0  0  0
   24.9085   18.8025   33.6404 O   0  0  0  0  0  0  0  0  0  0  0  0
   26.6707   19.1429   34.9413 O   0  0  0  0  0  0  0  0  0  0  0  0
   24.0916   18.8566   36.6931 N   0  0  0  0  0  0  0  0  0  0  0  0
  1  2  2  0
  1  6  1  0
  2 10  1  0
  3  4  2  0
  3  9  1  0
  4 13  1  0
  5  9  1  0
  5 12  1  0
  5 33  1  6
  6 14  2  0
  7  8  1  0
  7 15  1  0
  8 36  1  0
  9 17  2  0
 10 16  2  0
 11 12  1  0
 15 11  1  6
 13 18  2  0
 14 16  1  0
 14 19  1  0
 15 20  1  0
 17 18  1  0
 19 21  1  0
 20 24  1  6
 20 36  1  0
 21 36  1  0
 22 23  1  0
 22 25  2  0
 23 26  1  0
 23 34  1  6
 24 34  1  0
 24 35  2  0
 25 28  1  0
 26 27  2  0
 26 29  1  0
 27 30  1  0
 28 29  2  0
 29 31  1  0
 30 32  2  0
 31 32  1  0
M  END
$$$$

     RDKit          3D

 28 31  0  0  0  0  0  0  0  0999 V2000
   21.5221   15.8502   41.0317 C   0  0  0  0  0  0  0  0  0  0  0  0
   22.0935   16.0711   39.7857 C   0  0  0  0  0  0  0  0  0  0  0  0
   21.9820   16.5123   42.1458 C   0  0  0  0  0  0  0  0  0  0  0  0
   22.0188   18.4306   28.4965 C   0  0  0  0  0  0  0  0  0  0  0  0
   22.3058   18.6732   29.8670 C   0  0  0  0  0  0  0  0  0  0  0  0
   22.3892   19.4204   27.5127 C   0  0  0  0  0  0  0  0  0  0  0  0
   22.8964   19.9119   30.2866 C   0  0  0  0  0  0  0  0  0  0  0  0
   23.1605   16.9634   39.6396 C   0  0  0  0  0  0  0  0  0  0  0  0
   22.9645   17.4953   42.0170 C   0  0  0  0  0  0  0  0  0  0  0  0
   23.1592   20.2323   31.7010 C   0  0  0  0  0  0  0  0  0  0  0  0
   22.9915   20.6232   27.9215 C   0  0  0  0  0  0  0  0  0  0  0  0
   23.2657   20.8384   29.2854 C   0  0  0  0  0  0  0  0  0  0  0  0
   23.5546   17.7268   40.7597 C   0  0  0  0  0  0  0  0  0  0  0  0
   23.5210   19.8741   35.9541 C   0  0  0  0  0  0  0  0  0  0  0  0
   23.5702   20.1836   34.5715 C   0  0  0  0  0  0  0  0  0  0  0  0
   23.8668   17.0580   38.3160 C   0  0  0  0  0  0  0  0  0  0  0  0
   24.1362   18.6949   36.4679 C   0  0  0  0  0  0  0  0  0  0  0  0
   24.3238   19.3797   33.6666 C   0  0  0  0  0  0  0  0  0  0  0  0
   24.7897   17.7895   35.5658 C   0  0  0  0  0  0  0  0  0  0  0  0
   24.9065   18.1752   34.1563 C   0  0  0  0  0  0  0  0  0  0  0  0
   25.4970   19.3817   31.4309 C   0  0  0  0  0  0  0  0  0  0  0  0
   25.8259   18.0299   31.0913 C   0  0  0  0  0  0  0  0  0  0  0  0
   26.3544   20.4221   30.9415 C   0  0  0  0  0  0  0  0  0  0  0  0
   26.9617   17.7383   30.3071 C   0  0  0  0  0  0  0  0  0  0  0  0
   27.5064   20.1041   30.1320 C   0  0  0  0  0  0  0  0  0  0  0  0
   27.7531   18.7638   29.7903 C   0  0  0  0  0  0  0  0  0  0  0  0
   24.0709   18.4160   37.8424 N   0  0  0  0  0  0  0  0  0  0  0  0
   24.3748   19.7168   32.2687 N   0  0  0  0  0  0  0  0  0  0  0  0
  1  2  2  0
  1  3  1  0
  2  8  1  0
  3  9  2  0
  4  5  2  0
  4  6  1  0
  5  7  1  0
  6 11  2  0
  7 10  1  0
  7 12  2  0
  8 13  2  0
  8 16  1  0
  9 13  1  0
 10 28  1  0
 11 12  1  0
 14 15  1  0
 14 17  1  0
 15 18  2  0
 16 27  1  0
 17 19  2  0
 17 27  1  0
 18 20  1  0
 18 28  1  0
 19 20  1  0
 21 22  2  0
 21 23  1  0
 21 28  1  0
 22 24  1  0
 23 25  2  0
 24 26  2  0
 25 26  1  0
M  END
$$$$

     RDKit          3D

 30 32  0  0  0  0  0  0  0  0999 V2000
   22.1737   19.4253   32.4246 C   0  0  0  0  0  0  0  0  0  0  0  0
   21.9944   19.8184   30.9444 C   0  0  0  0  0  0  0  0  0  0  0  0
   22.3860   16.8751   41.1820 C   0  0  0  0  0  0  0  0  0  0  0  0
   22.4705   19.6167   36.8189 C   0  0  0  0  0  0  0  0  0  0  0  0
   22.5652   19.8743   35.3705 C   0  0  2  0  0  0  0  0  0  0  0  0
   23.1372   16.3711   39.9673 C   0  0  0  0  0  0  0  0  0  0  0  0
   23.2651   18.4077   37.3070 C   0  0  2  0  0  0  0  0  0  0  0  0
   23.4264   18.5230   38.8107 C   0  0  0  0  0  0  0  0  0  0  0  0
   23.4386   18.9700   34.5411 C   0  0  1  0  0  0  0  0  0  0  0  0
   23.2115   20.1149   30.1002 C   0  0  0  0  0  0  0  0  0  0  0  0
   23.5946   19.4093   33.0523 C   0  0  2  0  0  0  0  0  0  0  0  0
   24.1288   16.8893   32.2615 C   0  0  0  0  0  0  0  0  0  0  0  0
   24.1835   17.4108   39.4625 C   0  0  2  0  0  0  0  0  0  0  0  0
   24.2811   20.8425   33.0858 C   0  0  0  0  0  0  0  0  0  0  0  0
   24.5851   18.1392   35.1352 C   0  0  2  0  0  0  0  0  0  0  0  0
   24.5362   18.3939   32.2682 C   0  0  0  0  0  0  0  0  0  0  0  0
   24.6805   18.2597   36.6606 C   0  0  2  0  0  0  0  0  0  0  0  0
   24.5197   18.8790   30.7385 C   0  0  0  0  0  0  0  0  0  0  0  0
   25.4104   16.8726   38.7219 C   0  0  0  0  0  0  0  0  0  0  0  0
   25.3627   16.9701   37.2038 C   0  0  0  0  0  0  0  0  0  0  0  0
   25.5480   19.5115   37.0223 C   0  0  0  0  0  0  0  0  0  0  0  0
   25.9420   18.3018   34.4175 C   0  0  0  0  0  0  0  0  0  0  0  0
   25.9486   18.4478   32.9054 C   0  0  0  0  0  0  0  0  0  0  0  0
   21.2651   16.3678   41.4579 O   0  0  0  0  0  0  0  0  0  0  0  0
   21.7614   19.7042   27.8784 O   0  0  0  0  0  0  0  0  0  0  0  0
   22.5567   21.1704   35.0646 O   0  0  0  0  0  0  0  0  0  0  0  0
   22.9547   17.6642   41.9794 O   0  0  0  0  0  0  0  0  0  0  0  0
   23.0339   21.8040   27.9414 O   0  0  0  0  0  0  0  0  0  0  0  0
   24.2244   19.6266   27.7782 O   0  0  0  0  0  0  0  0  0  0  0  0
   22.9809   20.3141   28.2679 P   0  0  0  0  0  0  0  0  0  0  0  0
  1  2  1  0
  1 11  1  0
  2 10  2  3
  3  6  1  0
  3 24  2  0
  3 27  1  0
  4  5  1  0
  7  4  1  6
  9  5  1  1
  5 26  1  1
 13  6  1  6
  7  8  1  0
  7 17  1  0
  8 13  1  0
  9 11  1  0
  9 15  1  0
 10 30  1  0
 11 14  1  1
 11 16  1  0
 12 16  1  0
 13 19  1  0
 15 17  1  0
 15 22  1  6
 16 18  1  0
 16 23  1  0
 17 20  1  0
 17 21  1  6
 19 20  1  0
 22 23  1  0
 25 30  1  0
 28 30  1  0
 29 30  1  0
M  END
$$$$

     RDKit          3D

 41 43  0  0  0  0  0  0  0  0999 V2000
   20.0812   27.0807   30.6521 C   0  0  0  0  0  0  0  0  0  0  0  0
   20.8945   18.4127   29.8911 C   0  0  0  0  0  0  0  0  0  0  0  0
   20.9523   25.8533   30.5842 C   0  0  0  0  0  0  0  0  0  0  0  0
   21.8028   15.6733   39.9653 C   0  0  0  0  0  0  0  0  0  0  0  0
   21.8899   16.2150   41.2371 C   0  0  0  0  0  0  0  0  0  0  0  0
   22.1306   18.4308   29.3846 C   0  0  0  0  0  0  0  0  0  0  0  0
   22.1057   18.9062   30.4843 C   0  0  0  0  0  0  0  0  0  0  0  0
   21.9738   23.2736   30.9416 C   0  0  0  0  0  0  0  0  0  0  0  0
   22.0261   24.1686   31.9774 C   0  0  0  0  0  0  0  0  0  0  0  0
   22.0792   26.5530   32.6157 C   0  0  0  0  0  0  0  0  0  0  0  0
   22.4084   16.3267   38.8983 C   0  0  0  0  0  0  0  0  0  0  0  0
   22.2213   21.9524   31.1486 C   0  0  0  0  0  0  0  0  0  0  0  0
   22.3720   23.7202   33.2572 C   0  0  0  0  0  0  0  0  0  0  0  0
   22.6153   17.4269   41.4599 C   0  0  0  0  0  0  0  0  0  0  0  0
   22.5290   21.4562   32.3844 C   0  0  0  0  0  0  0  0  0  0  0  0
   22.6393   22.3677   33.4569 C   0  0  0  0  0  0  0  0  0  0  0  0
   22.7260   20.0207   32.5745 C   0  0  1  0  0  0  0  0  0  0  0  0
   23.1192   17.5155   39.1143 C   0  0  0  0  0  0  0  0  0  0  0  0
   23.1939   18.0629   40.3622 C   0  0  0  0  0  0  0  0  0  0  0  0
   23.0933   19.5769   33.8804 C   0  0  0  0  0  0  0  0  0  0  0  0
   23.2455   19.0957   29.7210 C   0  0  0  0  0  0  0  0  0  0  0  0
   24.3337   18.9555   35.6565 C   0  0  0  0  0  0  0  0  0  0  0  0
   24.3271   19.2453   34.2952 C   0  0  0  0  0  0  0  0  0  0  0  0
   25.1325   16.7301   32.9622 C   0  0  0  0  0  0  0  0  0  0  0  0
   25.0642   18.2355   37.7631 C   0  0  0  0  0  0  0  0  0  0  0  0
   25.4061   18.7308   36.5180 C   0  0  0  0  0  0  0  0  0  0  0  0
   25.6362   15.6179   32.1833 C   0  0  0  0  0  0  0  0  0  0  0  0
   25.4668   19.2123   33.3787 C   0  0  0  0  0  0  0  0  0  0  0  0
   25.9511   17.9088   32.9099 C   0  0  2  0  0  0  0  0  0  0  0  0
   26.0718   17.9034   38.6675 C   0  0  0  0  0  0  0  0  0  0  0  0
   26.7339   18.2416   31.7287 C   0  0  0  0  0  0  0  0  0  0  0  0
   26.7218   18.9831   36.1845 C   0  0  0  0  0  0  0  0  0  0  0  0
   27.3879   18.1383   38.3177 C   0  0  0  0  0  0  0  0  0  0  0  0
   27.6879   18.6894   37.0829 C   0  0  0  0  0  0  0  0  0  0  0  0
   21.7692   27.8043   32.3605 O   0  0  0  0  0  0  0  0  0  0  0  0
   21.6947   25.4969   31.7603 N   0  0  0  0  0  0  0  0  0  0  0  0
   22.2049   19.1187   31.7758 N   0  0  0  0  0  0  0  0  0  0  0  0
   22.1291   19.3484   34.6631 N   0  0  0  0  0  0  0  0  0  0  0  0
   23.6974   18.1669   37.9977 N   0  0  0  0  0  0  0  0  0  0  0  0
   22.8085   18.8405   36.3936 S   0  0  0  0  0  0  0  0  0  0  0  0
   26.1703   16.0802   30.9561 F   0  0  0  0  0  0  0  0  0  0  0  0
  1  3  1  0
  2  6  1  0
  3 36  1  0
  4  5  2  0
  4 11  1  0
  5 14  1  0
  6  7  1  0
  6 21  1  0
  7 37  1  0
  8  9  2  0
  8 12  1  0
  9 13  1  0
  9 36  1  0
 10 35  1  0
 10 36  1  0
 11 18  2  0
 12 15  2  0
 13 16  2  0
 14 19  2  0
 15 16  1  0
 15 17  1  0
 17 20  1  0
 17 37  1  1
 18 19  1  0
 18 39  1  0
 20 23  2  3
 20 38  1  0
 22 23  1  0
 22 26  1  0
 22 40  1  0
 23 28  1  0
 24 27  1  0
 24 29  1  0
 25 26  1  0
 25 30  2  0
 25 39  1  0
 26 32  2  0
 27 41  1  0
 28 29  1  0
 29 31  1  6
 30 33  1  0
 32 34  1  0
 33 34  2  0
M  END
$$$$

     RDKit          3D

 38 41  0  0  0  0  0  0  0  0999 V2000
   21.2345   16.3737   41.6672 C   0  0  0  0  0  0  0  0  0  0  0  0
   21.4173   19.4955   29.9984 C   0  0  0  0  0  0  0  0  0  0  0  0
   21.6885   19.2032   31.3275 C   0  0  0  0  0  0  0  0  0  0  0  0
   21.7377   17.6381   28.6362 C   0  0  0  0  0  0  0  0  0  0  0  0
   21.8065   20.7232   29.4506 C   0  0  0  0  0  0  0  0  0  0  0  0
   22.1556   16.0104   40.4785 C   0  0  0  0  0  0  0  0  0  0  0  0
   22.4093   19.4161   36.4369 C   0  0  0  0  0  0  0  0  0  0  0  0
   22.3409   20.1472   32.1309 C   0  0  1  0  0  0  0  0  0  0  0  0
   22.6768   19.7223   33.4526 C   0  0  0  0  0  0  0  0  0  0  0  0
   22.4709   21.6748   30.2312 C   0  0  0  0  0  0  0  0  0  0  0  0
   22.7332   18.0588   38.5483 C   0  0  0  0  0  0  0  0  0  0  0  0
   22.8313   20.8266   34.4103 C   0  0  0  0  0  0  0  0  0  0  0  0
   22.7317   21.3889   31.5817 C   0  0  0  0  0  0  0  0  0  0  0  0
   23.2135   18.8195   37.4772 C   0  0  0  0  0  0  0  0  0  0  0  0
   23.7266   17.4145   39.3213 C   0  0  0  0  0  0  0  0  0  0  0  0
   24.7109   16.1396   32.7155 C   0  0  0  0  0  0  0  0  0  0  0  0
   25.1234   17.6029   38.9694 C   0  0  0  0  0  0  0  0  0  0  0  0
   25.4501   17.4498   32.7954 C   0  0  0  0  0  0  0  0  0  0  0  0
   25.4495   18.4179   37.8848 C   0  0  0  0  0  0  0  0  0  0  0  0
   25.6549   17.9319   34.0420 C   0  0  0  0  0  0  0  0  0  0  0  0
   25.8192   18.2109   31.6798 C   0  0  0  0  0  0  0  0  0  0  0  0
   26.1734   19.1909   34.2039 C   0  0  0  0  0  0  0  0  0  0  0  0
   26.4347   19.4790   31.8597 C   0  0  0  0  0  0  0  0  0  0  0  0
   26.3130   19.9272   29.5740 C   0  0  0  0  0  0  0  0  0  0  0  0
   26.6150   19.9619   33.1675 C   0  0  0  0  0  0  0  0  0  0  0  0
   26.8520   18.6496   37.4803 C   0  0  0  0  0  0  0  0  0  0  0  0
   27.1497   19.1600   36.1845 C   0  0  0  0  0  0  0  0  0  0  0  0
   27.8626   18.3939   38.3422 C   0  0  0  0  0  0  0  0  0  0  0  0
   28.4633   19.2524   35.7610 C   0  0  0  0  0  0  0  0  0  0  0  0
   29.1320   18.5619   37.9554 C   0  0  0  0  0  0  0  0  0  0  0  0
   29.4727   18.9491   36.6782 C   0  0  0  0  0  0  0  0  0  0  0  0
   20.7972   18.5708   29.2020 O   0  0  0  0  0  0  0  0  0  0  0  0
   21.2888   18.9324   36.1921 O   0  0  0  0  0  0  0  0  0  0  0  0
   23.3596   16.6552   40.4255 O   0  0  0  0  0  0  0  0  0  0  0  0
   26.1413   19.6770   35.4601 O   0  0  0  0  0  0  0  0  0  0  0  0
   26.8836   20.2500   30.8362 O   0  0  0  0  0  0  0  0  0  0  0  0
   23.0185   20.3812   35.7293 N   0  0  0  0  0  0  0  0  0  0  0  0
   24.4615   18.9959   37.2614 N   0  0  0  0  0  0  0  0  0  0  0  0
  1  6  1  0
  2  3  2  0
  2  5  1  0
  2 32  1  0
  3  8  1  0
  4 32  1  0
  5 10  1  0
  6 34  1  0
  7 14  1  0
  7 33  2  0
  7 37  1  0
  8  9  1  6
  8 13  1  0
  9 12  1  0
 10 13  2  0
 11 14  2  0
 11 15  1  0
 12 37  1  0
 14 38  1  0
 15 17  2  0
 15 34  1  0
 16 18  1  0
 17 19  1  0
 18 20  2  0
 18 21  1  0
 19 26  1  0
 19 38  2  0
 20 22  1  0
 21 23  2  0
 22 25  2  0
 22 35  1  0
 23 25  1  0
 23 36  1  0
 24 36  1  0
 26 27  1  0
 26 28  1  0
 27 29  2  0
 27 35  1  0
 28 30  2  0
 29 31  1  0
 30 31  1  0
M  END
$$$$

     RDKit          3D

 42 47  0  0  0  0  0  0  0  0999 V2000
   20.9452   18.2534   30.0276 C   0  0  0  0  0  0  0  0  0  0  0  0
   21.6510   17.1536   27.6140 C   0  0  0  0  0  0  0  0  0  0  0  0
   21.8037   18.9520   29.1345 C   0  0  0  0  0  0  0  0  0  0  0  0
   22.1794   15.7271   40.8041 C   0  0  0  0  0  0  0  0  0  0  0  0
   22.0131   18.4628   27.7997 C   0  0  0  0  0  0  0  0  0  0  0  0
   22.0553   18.6631   37.7752 C   0  0  0  0  0  0  0  0  0  0  0  0
   22.5612   20.1566   29.4784 C   0  0  0  0  0  0  0  0  0  0  0  0
   22.6154   21.7742   31.3789 C   0  0  0  0  0  0  0  0  0  0  0  0
   22.8176   20.4513   30.9242 C   0  0  0  0  0  0  0  0  0  0  0  0
   22.9561   21.1722   35.1559 C   0  0  2  0  0  0  0  0  0  0  0  0
   22.7943   22.0321   32.7825 C   0  0  0  0  0  0  0  0  0  0  0  0
   22.8028   23.4072   33.2314 C   0  0  0  0  0  0  0  0  0  0  0  0
   23.1783   20.0578   36.1700 C   0  0  1  0  0  0  0  0  0  0  0  0
   22.9858   20.9164   33.7192 C   0  0  0  0  0  0  0  0  0  0  0  0
   23.1228   23.6549   34.6373 C   0  0  0  0  0  0  0  0  0  0  0  0
   23.2921   16.8711   38.9774 C   0  0  0  0  0  0  0  0  0  0  0  0
   23.2470   17.9933   38.0957 C   0  0  0  0  0  0  0  0  0  0  0  0
   23.2388   19.4465   31.8243 C   0  0  0  0  0  0  0  0  0  0  0  0
   23.2902   19.6649   33.1771 C   0  0  0  0  0  0  0  0  0  0  0  0
   23.3024   22.4832   35.5598 C   0  0  0  0  0  0  0  0  0  0  0  0
   24.4326   19.4482   36.5075 C   0  0  0  0  0  0  0  0  0  0  0  0
   24.5181   16.2507   39.2924 C   0  0  0  0  0  0  0  0  0  0  0  0
   24.4706   18.4622   37.5131 C   0  0  0  0  0  0  0  0  0  0  0  0
   25.0061   16.6266   33.0894 C   0  0  0  0  0  0  0  0  0  0  0  0
   24.9627   18.1852   31.1403 C   0  0  0  0  0  0  0  0  0  0  0  0
   25.7073   16.7577   38.7307 C   0  0  0  0  0  0  0  0  0  0  0  0
   25.6820   16.9420   31.6775 C   0  0  0  0  0  0  0  0  0  0  0  0
   25.7111   17.9051   37.9207 C   0  0  0  0  0  0  0  0  0  0  0  0
   26.9042   19.2638   36.3098 C   0  0  0  0  0  0  0  0  0  0  0  0
   26.9707   18.4397   37.4448 C   0  0  0  0  0  0  0  0  0  0  0  0
   28.0877   19.6492   35.6417 C   0  0  0  0  0  0  0  0  0  0  0  0
   29.3469   18.6131   37.4509 C   0  0  0  0  0  0  0  0  0  0  0  0
   29.3110   19.3195   36.2371 C   0  0  0  0  0  0  0  0  0  0  0  0
   22.1376   16.3794   39.4951 O   0  0  0  0  0  0  0  0  0  0  0  0
   22.0470   19.4273   26.2422 O   0  0  0  0  0  0  0  0  0  0  0  0
   22.1979   22.7213   30.5355 O   0  0  0  0  0  0  0  0  0  0  0  0
   23.2755   20.7076   28.6245 O   0  0  0  0  0  0  0  0  0  0  0  0
   23.6657   18.2229   31.3431 O   0  0  0  0  0  0  0  0  0  0  0  0
   25.6039   19.0467   30.4546 O   0  0  0  0  0  0  0  0  0  0  0  0
   25.6192   19.7469   35.8591 O   0  0  0  0  0  0  0  0  0  0  0  0
   22.0238   19.6649   36.8731 N   0  0  0  0  0  0  0  0  0  0  0  0
   28.2014   18.1823   38.0322 N   0  0  0  0  0  0  0  0  0  0  0  0
  1  3  1  0
  2  5  2  0
  3  5  1  0
  3  7  1  0
  4 34  1  0
  5 35  1  0
  6 17  1  0
  6 41  2  0
  7  9  1  0
  7 37  2  0
  8  9  2  0
  8 11  1  0
  8 36  1  0
  9 18  1  0
 10 13  1  0
 10 14  1  0
 10 20  1  6
 11 12  1  0
 11 14  2  0
 12 15  1  0
 13 21  1  0
 13 41  1  1
 14 19  1  0
 15 20  2  0
 16 17  1  0
 16 22  2  0
 16 34  1  0
 17 23  1  0
 18 19  2  0
 18 38  1  0
 21 23  2  0
 21 40  1  0
 22 26  1  0
 23 28  1  0
 24 27  1  0
 25 27  1  0
 25 38  1  0
 25 39  2  0
 26 28  2  0
 28 30  1  0
 29 30  2  0
 29 31  1  0
 29 40  1  0
 30 42  1  0
 31 33  2  0
 32 33  1  0
 32 42  2  0
M  END
$$$$

     RDKit          3D

 40 44  0  0  0  0  0  0  0  0999 V2000
   21.6767   15.8039   40.2868 C   0  0  0  0  0  0  0  0  0  0  0  0
   21.6574   16.3860   41.5347 C   0  0  0  0  0  0  0  0  0  0  0  0
   22.3483   18.8966   27.5207 C   0  0  0  0  0  0  0  0  0  0  0  0
   22.6592   16.1429   39.3843 C   0  0  0  0  0  0  0  0  0  0  0  0
   22.6617   17.2716   41.9299 C   0  0  0  0  0  0  0  0  0  0  0  0
   22.9826   20.8059   28.7783 C   0  0  0  0  0  0  0  0  0  0  0  0
   23.6587   17.0400   39.7071 C   0  0  0  0  0  0  0  0  0  0  0  0
   23.6447   17.6209   40.9975 C   0  0  0  0  0  0  0  0  0  0  0  0
   23.5037   20.0414   29.9485 C   0  0  0  0  0  0  0  0  0  0  0  0
   23.6826   21.9139   33.0358 C   0  0  0  0  0  0  0  0  0  0  0  0
   24.6874   17.1992   38.6640 C   0  0  0  0  0  0  0  0  0  0  0  0
   24.7015   17.6737   33.4525 C   0  0  0  0  0  0  0  0  0  0  0  0
   24.9086   16.3682   33.3728 C   0  0  0  0  0  0  0  0  0  0  0  0
   24.8053   19.9958   32.9535 C   0  0  1  0  0  0  0  0  0  0  0  0
   24.7702   21.9631   33.8838 C   0  0  0  0  0  0  0  0  0  0  0  0
   25.3255   18.6034   32.6586 C   0  0  0  0  0  0  0  0  0  0  0  0
   25.7253   15.8313   32.4244 C   0  0  0  0  0  0  0  0  0  0  0  0
   26.0038   19.2748   36.7412 C   0  0  0  0  0  0  0  0  0  0  0  0
   26.3833   16.6351   31.5754 C   0  0  0  0  0  0  0  0  0  0  0  0
   26.2556   18.0232   31.6417 C   0  0  0  0  0  0  0  0  0  0  0  0
   26.4709   18.5768   37.9078 C   0  0  0  0  0  0  0  0  0  0  0  0
   26.6809   20.5147   34.5720 C   0  0  0  0  0  0  0  0  0  0  0  0
   26.9484   19.7959   35.8569 C   0  0  0  0  0  0  0  0  0  0  0  0
   26.9522   20.0849   30.5572 C   0  0  0  0  0  0  0  0  0  0  0  0
   27.1890   18.7638   30.7611 C   0  0  0  0  0  0  0  0  0  0  0  0
   27.8376   18.3860   38.1290 C   0  0  0  0  0  0  0  0  0  0  0  0
   27.7250   20.7828   29.7108 C   0  0  0  0  0  0  0  0  0  0  0  0
   28.3076   18.1753   30.1102 C   0  0  0  0  0  0  0  0  0  0  0  0
   28.2791   19.6162   36.1266 C   0  0  0  0  0  0  0  0  0  0  0  0
   28.7247   18.9282   37.2215 C   0  0  0  0  0  0  0  0  0  0  0  0
   28.8072   20.2356   29.0725 C   0  0  0  0  0  0  0  0  0  0  0  0
   29.1755   18.9300   29.2936 C   0  0  0  0  0  0  0  0  0  0  0  0
   30.2285   18.7624   37.4458 C   0  0  0  0  0  0  0  0  0  0  0  0
   21.5263   21.2917   31.2570 O   0  0  0  0  0  0  0  0  0  0  0  0
   21.8586   18.9230   31.6408 O   0  0  0  0  0  0  0  0  0  0  0  0
   25.6443   18.0900   38.8886 O   0  0  0  0  0  0  0  0  0  0  0  0
   21.9238   20.1390   28.1165 N   0  0  0  0  0  0  0  0  0  0  0  0
   23.6998   20.6633   32.5076 N   0  0  0  0  0  0  0  0  0  0  0  0
   25.4271   20.7568   33.8958 N   0  0  0  0  0  0  0  0  0  0  0  0
   22.4912   20.1813   31.3722 S   0  0  0  0  0  0  0  0  0  0  0  0
  1  2  1  0
  1  4  2  0
  2  5  2  0
  3 37  1  0
  4  7  1  0
  5  8  1  0
  6  9  1  0
  6 37  1  0
  7  8  1  0
  7 11  2  3
  9 40  1  0
 10 15  1  0
 10 38  1  0
 11 36  1  0
 12 13  2  0
 12 16  1  0
 13 17  1  0
 14 16  1  1
 14 38  1  0
 14 39  1  0
 15 39  1  0
 16 20  2  0
 17 19  2  0
 18 21  2  0
 18 23  1  0
 19 20  1  0
 20 25  1  0
 21 26  1  0
 21 36  1  0
 22 23  1  0
 22 39  1  0
 23 29  2  0
 24 25  2  0
 24 27  1  0
 25 28  1  0
 26 30  2  0
 27 31  2  0
 28 32  2  0
 29 30  1  0
 30 33  1  0
 31 32  1  0
 34 40  1  0
 35 40  1  0
 38 40  1  0
M  END
$$$$

     RDKit          3D

 40 44  0  0  0  0  0  0  0  0999 V2000
   21.4874   17.0065   42.0878 C   0  0  0  0  0  0  0  0  0  0  0  0
   21.8401   19.1037   30.1693 C   0  0  0  0  0  0  0  0  0  0  0  0
   21.9764   16.2682   39.7575 C   0  0  0  0  0  0  0  0  0  0  0  0
   22.1506   23.3899   29.9208 C   0  0  0  0  0  0  0  0  0  0  0  0
   22.3117   17.0478   40.8606 C   0  0  0  0  0  0  0  0  0  0  0  0
   22.2203   22.1183   30.3481 C   0  0  0  0  0  0  0  0  0  0  0  0
   22.7499   16.2697   38.6078 C   0  0  0  0  0  0  0  0  0  0  0  0
   22.7509   20.1556   32.7813 C   0  0  0  0  0  0  0  0  0  0  0  0
   22.7471   23.7536   28.7664 C   0  0  0  0  0  0  0  0  0  0  0  0
   23.1774   19.8535   30.2634 C   0  0  1  0  0  0  0  0  0  0  0  0
   23.1816   20.3364   34.0728 C   0  0  0  0  0  0  0  0  0  0  0  0
   22.9792   21.2438   29.6428 C   0  0  0  0  0  0  0  0  0  0  0  0
   23.4477   17.8480   40.7835 C   0  0  0  0  0  0  0  0  0  0  0  0
   23.6558   19.9713   31.7471 C   0  0  0  0  0  0  0  0  0  0  0  0
   23.4967   21.6035   28.3978 C   0  0  0  0  0  0  0  0  0  0  0  0
   23.9047   17.0395   38.5634 C   0  0  0  0  0  0  0  0  0  0  0  0
   24.1982   17.8893   39.6186 C   0  0  0  0  0  0  0  0  0  0  0  0
   24.5155   20.2823   34.3731 C   0  0  0  0  0  0  0  0  0  0  0  0
   24.7945   16.9592   37.3164 C   0  0  0  0  0  0  0  0  0  0  0  0
   25.0293   19.9436   32.0734 C   0  0  0  0  0  0  0  0  0  0  0  0
   25.0389   20.3933   35.7060 C   0  0  1  0  0  0  0  0  0  0  0  0
   25.4535   20.2520   33.3582 C   0  0  0  0  0  0  0  0  0  0  0  0
   25.5018   19.2237   36.3649 C   0  0  2  0  0  0  0  0  0  0  0  0
   26.0741   19.6765   31.1269 C   0  0  0  0  0  0  0  0  0  0  0  0
   26.4836   18.3515   30.9582 C   0  0  0  0  0  0  0  0  0  0  0  0
   26.6826   20.6921   30.4151 C   0  0  0  0  0  0  0  0  0  0  0  0
   26.9485   19.2031   36.6803 C   0  0  0  0  0  0  0  0  0  0  0  0
   27.3669   18.9926   37.9745 C   0  0  0  0  0  0  0  0  0  0  0  0
   27.5053   18.0752   30.0534 C   0  0  0  0  0  0  0  0  0  0  0  0
   27.6946   20.3968   29.5529 C   0  0  0  0  0  0  0  0  0  0  0  0
   27.9378   19.4278   35.7079 C   0  0  0  0  0  0  0  0  0  0  0  0
   28.1017   19.1142   29.3913 C   0  0  0  0  0  0  0  0  0  0  0  0
   28.6894   18.8975   38.2972 C   0  0  0  0  0  0  0  0  0  0  0  0
   29.2791   19.3470   36.0217 C   0  0  0  0  0  0  0  0  0  0  0  0
   29.6259   19.0425   37.3264 C   0  0  0  0  0  0  0  0  0  0  0  0
   20.8655   19.4716   29.5184 O   0  0  0  0  0  0  0  0  0  0  0  0
   23.3692   22.9107   27.9747 N   0  0  0  0  0  0  0  0  0  0  0  0
   24.6679   18.1922   36.5334 N   0  0  0  0  0  0  0  0  0  0  0  0
   25.3222   21.6334   36.1851 N   0  0  0  0  0  0  0  0  0  0  0  0
   29.3973   18.9255   28.1786 Cl  0  0  0  0  0  0  0  0  0  0  0  0
  1  5  1  0
 10  2  1  1
  2 36  2  0
  3  5  2  0
  3  7  1  0
  4  6  2  0
  4  9  1  0
  5 13  1  0
  6 12  1  0
  7 16  2  0
  8 11  2  0
  8 14  1  0
  9 37  2  0
 10 12  1  0
 10 14  1  0
 11 18  1  0
 12 15  2  0
 13 17  2  0
 14 20  2  0
 15 37  1  0
 16 17  1  0
 16 19  1  0
 18 21  1  0
 18 22  2  0
 19 38  1  0
 20 22  1  0
 20 24  1  0
 21 23  1  0
 21 39  1  6
 23 27  1  0
 23 38  1  6
 24 25  2  0
 24 26  1  0
 25 29  1  0
 26 30  2  0
 27 28  2  0
 27 31  1  0
 28 33  1  0
 29 32  2  0
 30 32  1  0
 31 34  2  0
 32 40  1  0
 33 35  2  0
 34 35  1  0
M  END
$$$$

     RDKit          3D

 39 43  0  0  0  0  0  0  0  0999 V2000
   20.2197   25.4879   33.4382 C   0  0  0  0  0  0  0  0  0  0  0  0
   20.4966   16.2849   42.5800 C   0  0  0  0  0  0  0  0  0  0  0  0
   21.7572   17.0741   42.4515 C   0  0  0  0  0  0  0  0  0  0  0  0
   21.8780   25.4053   31.6009 C   0  0  0  0  0  0  0  0  0  0  0  0
   21.9820   16.2174   39.9758 C   0  0  0  0  0  0  0  0  0  0  0  0
   22.0003   22.3142   31.5279 C   0  0  0  0  0  0  0  0  0  0  0  0
   22.0728   23.7775   33.5098 C   0  0  0  0  0  0  0  0  0  0  0  0
   22.4527   17.0315   41.0759 C   0  0  0  0  0  0  0  0  0  0  0  0
   22.5707   21.4000   30.6597 C   0  0  0  0  0  0  0  0  0  0  0  0
   22.6887   22.6864   32.6894 C   0  0  0  0  0  0  0  0  0  0  0  0
   22.9522   16.2768   38.9177 C   0  0  0  0  0  0  0  0  0  0  0  0
   23.5748   19.1142   35.4886 C   0  0  0  0  0  0  0  0  0  0  0  0
   23.7160   17.5931   40.6502 C   0  0  0  0  0  0  0  0  0  0  0  0
   23.7582   20.7886   30.9683 C   0  0  0  0  0  0  0  0  0  0  0  0
   23.9097   21.9926   33.0851 C   0  0  0  0  0  0  0  0  0  0  0  0
   23.9938   17.0760   39.3541 C   0  0  1  0  0  0  0  0  0  0  0  0
   24.4384   21.0739   32.1733 C   0  0  0  0  0  0  0  0  0  0  0  0
   24.5697   22.2037   34.4217 C   0  0  0  0  0  0  0  0  0  0  0  0
   24.7325   19.3934   36.4444 C   0  0  2  0  0  0  0  0  0  0  0  0
   24.9880   17.1305   36.9794 C   0  0  0  0  0  0  0  0  0  0  0  0
   25.2486   16.4251   32.7865 C   0  0  0  0  0  0  0  0  0  0  0  0
   25.2468   17.2057   38.4834 C   0  0  0  0  0  0  0  0  0  0  0  0
   25.3975   17.7793   32.6758 C   0  0  0  0  0  0  0  0  0  0  0  0
   25.5047   20.6837   36.1554 C   0  0  0  0  0  0  0  0  0  0  0  0
   25.8105   15.6246   31.8489 C   0  0  0  0  0  0  0  0  0  0  0  0
   26.1559   18.3141   31.6118 C   0  0  0  0  0  0  0  0  0  0  0  0
   26.2049   20.5480   33.7867 C   0  0  0  0  0  0  0  0  0  0  0  0
   26.3065   19.6907   31.5296 C   0  0  0  0  0  0  0  0  0  0  0  0
   26.5348   16.0984   30.7848 C   0  0  0  0  0  0  0  0  0  0  0  0
   26.7340   17.4562   30.6510 C   0  0  0  0  0  0  0  0  0  0  0  0
   27.0118   20.2328   30.4787 C   0  0  0  0  0  0  0  0  0  0  0  0
   27.5021   18.0307   29.5900 C   0  0  0  0  0  0  0  0  0  0  0  0
   27.6404   19.4376   29.5350 C   0  0  0  0  0  0  0  0  0  0  0  0
   22.2428   23.7933   34.7256 O   0  0  0  0  0  0  0  0  0  0  0  0
   25.6075   18.2348   36.2641 O   0  0  0  0  0  0  0  0  0  0  0  0
   27.2793   20.2293   34.1009 O   0  0  0  0  0  0  0  0  0  0  0  0
   21.3200   24.7665   32.8063 N   0  0  0  0  0  0  0  0  0  0  0  0
   25.4305   21.1338   34.7422 N   0  0  0  0  0  0  0  0  0  0  0  0
   25.6576   20.4476   32.5239 N   0  0  0  0  0  0  0  0  0  0  0  0
  1 37  1  0
  2  3  1  0
  3  8  2  3
  4 37  1  0
  5  8  1  0
  5 11  1  0
  6  9  2  0
  6 10  1  0
  7 10  1  0
  7 34  2  0
  7 37  1  0
  8 13  1  0
  9 14  1  0
 10 15  2  0
 11 16  1  0
 19 12  1  6
 13 16  1  0
 14 17  2  0
 15 17  1  0
 15 18  1  0
 16 22  1  1
 17 39  1  0
 18 38  1  0
 19 24  1  0
 19 35  1  0
 20 22  1  0
 20 35  1  0
 21 23  2  0
 21 25  1  0
 23 26  1  0
 24 38  1  0
 25 29  2  0
 26 28  2  0
 26 30  1  0
 27 36  2  0
 27 38  1  0
 27 39  1  0
 28 31  1  0
 28 39  1  0
 29 30  1  0
 30 32  2  0
 31 33  2  0
 32 33  1  0
M  END
$$$$

     RDKit          3D

 33 36  0  0  0  0  0  0  0  0999 V2000
   21.9084   16.1730   40.3887 C   0  0  0  0  0  0  0  0  0  0  0  0
   21.7388   16.0855   41.7770 C   0  0  0  0  0  0  0  0  0  0  0  0
   22.3108   18.6021   28.4154 C   0  0  0  0  0  0  0  0  0  0  0  0
   22.5066   18.6565   29.8157 C   0  0  0  0  0  0  0  0  0  0  0  0
   22.6077   19.7288   27.6062 C   0  0  0  0  0  0  0  0  0  0  0  0
   22.5517   21.0465   32.7070 C   0  0  0  0  0  0  0  0  0  0  0  0
   22.7784   17.0877   39.8513 C   0  0  0  0  0  0  0  0  0  0  0  0
   22.8960   17.2064   38.3397 C   0  0  0  0  0  0  0  0  0  0  0  0
   23.1350   19.5147   35.9911 C   0  0  0  0  0  0  0  0  0  0  0  0
   22.9642   19.8503   30.4284 C   0  0  0  0  0  0  0  0  0  0  0  0
   23.2114   19.9934   31.8899 C   0  0  1  0  0  0  0  0  0  0  0  0
   23.0774   20.9258   28.2378 C   0  0  0  0  0  0  0  0  0  0  0  0
   23.3696   17.8587   42.0479 C   0  0  0  0  0  0  0  0  0  0  0  0
   23.2897   19.8642   34.6548 C   0  0  0  0  0  0  0  0  0  0  0  0
   23.2325   20.9863   29.6256 C   0  0  0  0  0  0  0  0  0  0  0  0
   23.5071   17.9040   40.6961 C   0  0  0  0  0  0  0  0  0  0  0  0
   23.8967   18.5668   36.6428 C   0  0  0  0  0  0  0  0  0  0  0  0
   24.2531   19.2045   33.8684 C   0  0  0  0  0  0  0  0  0  0  0  0
   24.8980   17.9513   35.8612 C   0  0  0  0  0  0  0  0  0  0  0  0
   25.1248   18.2473   34.5001 C   0  0  0  0  0  0  0  0  0  0  0  0
   25.5246   17.4996   31.4019 C   0  0  0  0  0  0  0  0  0  0  0  0
   25.4921   18.8844   31.6031 C   0  0  0  0  0  0  0  0  0  0  0  0
   26.5655   16.9162   30.6469 C   0  0  0  0  0  0  0  0  0  0  0  0
   26.5838   19.6859   31.0637 C   0  0  0  0  0  0  0  0  0  0  0  0
   27.6142   17.6796   30.1210 C   0  0  0  0  0  0  0  0  0  0  0  0
   27.6052   19.0790   30.3046 C   0  0  0  0  0  0  0  0  0  0  0  0
   21.9921   22.1651   32.2736 O   0  0  0  0  0  0  0  0  0  0  0  0
   23.7055   18.3066   37.9714 O   0  0  0  0  0  0  0  0  0  0  0  0
   22.4731   20.8109   34.1293 N   0  0  0  0  0  0  0  0  0  0  0  0
   24.4306   19.4674   32.4218 N   0  0  0  0  0  0  0  0  0  0  0  0
   21.5490   17.2335   27.7302 Cl  0  0  0  0  0  0  0  0  0  0  0  0
   26.6683   15.2650   30.4466 Cl  0  0  0  0  0  0  0  0  0  0  0  0
   28.8283   19.9776   29.4888 Cl  0  0  0  0  0  0  0  0  0  0  0  0
  1  2  1  0
  1  7  2  3
  3  4  2  0
  3  5  1  0
  3 31  1  0
  4 10  1  0
  5 12  2  0
  6 11  1  0
  6 27  2  0
  6 29  1  0
  7  8  1  0
  7 16  1  0
  8 28  1  0
  9 14  1  0
  9 17  2  0
 11 10  1  6
 10 15  2  0
 11 30  1  0
 12 15  1  0
 13 16  2  0
 14 18  1  0
 14 29  2  0
 17 19  1  0
 17 28  1  0
 18 20  2  0
 18 30  1  0
 19 20  1  0
 21 22  2  0
 21 23  1  0
 22 24  1  0
 22 30  1  0
 23 25  2  0
 23 32  1  0
 24 26  2  0
 25 26  1  0
 26 33  1  0
M  END
$$$$

     RDKit          3D

 32 36  0  0  0  0  0  0  0  0999 V2000
   21.1305   17.8623   29.3736 C   0  0  0  0  0  0  0  0  0  0  0  0
   21.7421   17.5841   39.1561 C   0  0  0  0  0  0  0  0  0  0  0  0
   22.1452   16.5877   40.2197 C   0  0  0  0  0  0  0  0  0  0  0  0
   22.1886   18.7193   28.7858 C   0  0  2  0  0  0  0  0  0  0  0  0
   21.9680   19.6190   32.0097 C   0  0  0  0  0  0  0  0  0  0  0  0
   22.2685   18.8546   37.0678 C   0  0  0  0  0  0  0  0  0  0  0  0
   22.2871   20.2975   30.6745 C   0  0  0  0  0  0  0  0  0  0  0  0
   22.6719   17.6653   37.9291 C   0  0  1  0  0  0  0  0  0  0  0  0
   23.2117   19.1410   32.6813 C   0  0  2  0  0  0  0  0  0  0  0  0
   23.1733   19.3905   29.7844 C   0  0  1  0  0  0  0  0  0  0  0  0
   23.0763   20.8939   34.5766 C   0  0  0  0  0  0  0  0  0  0  0  0
   22.9591   20.9860   36.0308 C   0  0  0  0  0  0  0  0  0  0  0  0
   23.3581   15.8480   40.0470 C   0  0  0  0  0  0  0  0  0  0  0  0
   23.3928   19.5013   34.0902 C   0  0  2  0  0  0  0  0  0  0  0  0
   23.4361   19.8176   36.8829 C   0  0  2  0  0  0  0  0  0  0  0  0
   24.2012   15.9608   38.7497 C   0  0  0  0  0  0  0  0  0  0  0  0
   24.2006   17.4445   38.2741 C   0  0  2  0  0  0  0  0  0  0  0  0
   23.9830   18.2663   30.4854 C   0  0  0  0  0  0  0  0  0  0  0  0
   24.1312   20.3086   28.9999 C   0  0  0  0  0  0  0  0  0  0  0  0
   24.4523   18.7668   31.8702 C   0  0  2  0  0  0  0  0  0  0  0  0
   24.4537   18.7221   34.7883 C   0  0  2  0  0  0  0  0  0  0  0  0
   24.6635   19.1392   36.2638 C   0  0  2  0  0  0  0  0  0  0  0  0
   24.8214   18.2563   39.4233 C   0  0  0  0  0  0  0  0  0  0  0  0
   25.0587   16.4138   32.7905 C   0  0  0  0  0  0  0  0  0  0  0  0
   25.0226   17.7719   37.0389 C   0  0  0  0  0  0  0  0  0  0  0  0
   25.4389   17.8611   32.6307 C   0  0  2  0  0  0  0  0  0  0  0  0
   25.7737   18.5102   33.9821 C   0  0  0  0  0  0  0  0  0  0  0  0
   25.7792   20.1823   36.4789 C   0  0  0  0  0  0  0  0  0  0  0  0
   21.4248   16.5303   41.2259 O   0  0  0  0  0  0  0  0  0  0  0  0
   21.7020   19.6698   27.9265 O   0  0  0  0  0  0  0  0  0  0  0  0
   22.4530   21.9757   36.5475 O   0  0  0  0  0  0  0  0  0  0  0  0
   22.9262   21.8886   33.8594 O   0  0  0  0  0  0  0  0  0  0  0  0
  4  1  1  1
  2  3  1  0
  8  2  1  1
  3 13  1  0
  3 29  2  0
  4 10  1  0
  4 30  1  0
  5  7  1  0
  9  5  1  6
  6  8  1  0
 15  6  1  6
  7 10  1  0
  8 17  1  0
  9 14  1  0
  9 20  1  0
 10 18  1  0
 10 19  1  6
 11 12  1  0
 14 11  1  6
 11 32  2  0
 12 15  1  0
 12 31  2  0
 13 16  1  0
 14 21  1  0
 15 22  1  0
 16 17  1  0
 17 23  1  1
 17 25  1  0
 20 18  1  6
 20 26  1  0
 21 22  1  0
 21 27  1  6
 22 25  1  0
 22 28  1  6
 26 24  1  1
 26 27  1  0
M  END
$$$$

     RDKit          3D

 40 44  0  0  0  0  0  0  0  0999 V2000
   21.8451   16.0588   39.9787 C   0  0  0  0  0  0  0  0  0  0  0  0
   21.9299   18.5513   28.1515 C   0  0  0  0  0  0  0  0  0  0  0  0
   21.7526   19.5006   30.4538 C   0  0  0  0  0  0  0  0  0  0  0  0
   22.0245   22.4689   31.3006 C   0  0  0  0  0  0  0  0  0  0  0  0
   21.9937   23.8527   31.1377 C   0  0  0  0  0  0  0  0  0  0  0  0
   22.4161   16.3261   38.7447 C   0  0  0  0  0  0  0  0  0  0  0  0
   22.4448   16.6704   41.0653 C   0  0  0  0  0  0  0  0  0  0  0  0
   22.5232   20.4401   32.6758 C   0  0  0  0  0  0  0  0  0  0  0  0
   22.5401   21.9102   32.4674 C   0  0  0  0  0  0  0  0  0  0  0  0
   22.4785   24.7138   32.1478 C   0  0  0  0  0  0  0  0  0  0  0  0
   22.6400   27.0464   32.9808 C   0  0  0  0  0  0  0  0  0  0  0  0
   22.7292   18.8719   29.4086 C   0  0  0  0  0  0  0  0  0  0  0  0
   23.0671   19.3641   35.9345 C   0  0  0  0  0  0  0  0  0  0  0  0
   23.0359   22.7915   33.4584 C   0  0  0  0  0  0  0  0  0  0  0  0
   23.0255   24.1747   33.2787 C   0  0  0  0  0  0  0  0  0  0  0  0
   23.4458   17.5088   41.0210 C   0  0  0  0  0  0  0  0  0  0  0  0
   23.5154   17.0665   38.6562 C   0  0  0  0  0  0  0  0  0  0  0  0
   23.7851   19.8964   29.0169 C   0  0  0  0  0  0  0  0  0  0  0  0
   24.0070   17.6053   39.8024 C   0  0  0  0  0  0  0  0  0  0  0  0
   24.3734   19.3611   35.4687 C   0  0  0  0  0  0  0  0  0  0  0  0
   24.2902   19.6681   34.1221 C   0  0  0  0  0  0  0  0  0  0  0  0
   24.8624   16.9919   33.1828 C   0  0  0  0  0  0  0  0  0  0  0  0
   25.1444   15.7275   32.7149 C   0  0  0  0  0  0  0  0  0  0  0  0
   25.4445   18.0791   32.5335 C   0  0  0  0  0  0  0  0  0  0  0  0
   25.3040   18.1514   37.4088 C   0  0  2  0  0  0  0  0  0  0  0  0
   25.2840   19.5048   32.9892 C   0  0  0  0  0  0  0  0  0  0  0  0
   25.4672   19.0277   36.3443 C   0  0  0  0  0  0  0  0  0  0  0  0
   25.9511   15.5629   31.7069 C   0  0  0  0  0  0  0  0  0  0  0  0
   26.1799   17.7864   31.3972 C   0  0  0  0  0  0  0  0  0  0  0  0
   26.3791   16.5320   31.0326 C   0  0  0  0  0  0  0  0  0  0  0  0
   26.3844   17.8796   38.2328 C   0  0  0  0  0  0  0  0  0  0  0  0
   26.7247   19.5728   36.1108 C   0  0  0  0  0  0  0  0  0  0  0  0
   27.5881   18.4246   37.9651 C   0  0  0  0  0  0  0  0  0  0  0  0
   27.7517   19.3234   36.9555 C   0  0  0  0  0  0  0  0  0  0  0  0
   21.9690   16.3932   42.2909 O   0  0  0  0  0  0  0  0  0  0  0  0
   22.4112   26.0788   31.9143 O   0  0  0  0  0  0  0  0  0  0  0  0
   24.3003   17.2279   37.5168 O   0  0  0  0  0  0  0  0  0  0  0  0
   22.1884   19.4812   31.7922 N   0  0  0  0  0  0  0  0  0  0  0  0
   22.2684   19.8512   34.9911 N   0  0  0  0  0  0  0  0  0  0  0  0
   23.0056   20.0255   33.9119 N   0  0  0  0  0  0  0  0  0  0  0  0
  1  6  1  0
  1  7  2  0
  2 12  1  0
  3 12  1  0
  3 38  1  0
  4  5  1  0
  4  9  2  0
  5 10  1  0
  6 17  2  0
  7 16  1  0
  7 35  1  0
  8  9  1  0
  8 38  2  3
  8 40  1  0
  9 14  1  0
 10 15  2  0
 10 36  1  0
 11 36  1  0
 12 18  1  0
 13 20  1  0
 13 39  1  0
 14 15  1  0
 16 19  1  0
 17 19  1  0
 17 37  1  0
 20 21  2  0
 20 27  1  0
 21 26  1  0
 21 40  1  0
 22 23  2  0
 22 24  1  0
 23 28  1  0
 24 26  1  0
 24 29  2  0
 25 27  1  0
 25 31  1  0
 25 37  1  6
 27 32  1  0
 28 30  2  0
 29 30  1  0
 31 33  2  0
 32 34  2  0
 33 34  1  0
 39 40  1  0
M  END
$$$$

     RDKit          3D

 38 42  0  0  0  0  0  0  0  0999 V2000
   21.6994   19.4099   30.0280 C   0  0  0  0  0  0  0  0  0  0  0  0
   21.9237   21.7407   30.1804 C   0  0  0  0  0  0  0  0  0  0  0  0
   22.1155   15.9744   40.5703 C   0  0  0  0  0  0  0  0  0  0  0  0
   22.0503   17.9703   27.9978 C   0  0  0  0  0  0  0  0  0  0  0  0
   22.2274   19.2694   31.3769 C   0  0  0  0  0  0  0  0  0  0  0  0
   22.4483   19.6230   34.5568 C   0  0  0  0  0  0  0  0  0  0  0  0
   22.2455   19.8908   37.0040 C   0  0  0  0  0  0  0  0  0  0  0  0
   22.4324   21.6672   31.4749 C   0  0  0  0  0  0  0  0  0  0  0  0
   22.6429   17.7732   38.2182 C   0  0  0  0  0  0  0  0  0  0  0  0
   22.5777   20.4275   32.0858 C   0  0  0  0  0  0  0  0  0  0  0  0
   23.1320   18.8672   37.5875 C   0  0  0  0  0  0  0  0  0  0  0  0
   22.9649   20.4224   33.5073 C   0  0  1  0  0  0  0  0  0  0  0  0
   23.4840   16.8516   38.7763 C   0  0  0  0  0  0  0  0  0  0  0  0
   23.6836   21.5102   34.1488 C   0  0  0  0  0  0  0  0  0  0  0  0
   24.8951   16.9937   38.5971 C   0  0  0  0  0  0  0  0  0  0  0  0
   24.9818   15.6864   32.7641 C   0  0  0  0  0  0  0  0  0  0  0  0
   25.3869   17.1536   32.8202 C   0  0  0  0  0  0  0  0  0  0  0  0
   25.3259   18.1317   37.8985 C   0  0  0  0  0  0  0  0  0  0  0  0
   25.5745   17.6796   34.0663 C   0  0  0  0  0  0  0  0  0  0  0  0
   25.6014   17.9441   31.6928 C   0  0  0  0  0  0  0  0  0  0  0  0
   25.9439   19.2981   31.8258 C   0  0  0  0  0  0  0  0  0  0  0  0
   25.9615   18.9966   34.2321 C   0  0  0  0  0  0  0  0  0  0  0  0
   26.0343   19.8209   33.1154 C   0  0  0  0  0  0  0  0  0  0  0  0
   26.7241   18.4628   37.6376 C   0  0  0  0  0  0  0  0  0  0  0  0
   27.0531   19.0664   36.3898 C   0  0  0  0  0  0  0  0  0  0  0  0
   27.7317   18.2490   38.5877 C   0  0  0  0  0  0  0  0  0  0  0  0
   28.3939   19.2854   36.0612 C   0  0  0  0  0  0  0  0  0  0  0  0
   29.0558   18.5460   38.2124 C   0  0  0  0  0  0  0  0  0  0  0  0
   29.3711   19.0587   36.9684 C   0  0  0  0  0  0  0  0  0  0  0  0
   20.3208   17.6491   29.5259 O   0  0  0  0  0  0  0  0  0  0  0  0
   22.9647   15.7880   39.4455 O   0  0  0  0  0  0  0  0  0  0  0  0
   26.0402   19.4647   35.5103 O   0  0  0  0  0  0  0  0  0  0  0  0
   21.2887   18.3258   29.2044 N   0  0  0  0  0  0  0  0  0  0  0  0
   21.5538   20.6700   29.4864 N   0  0  0  0  0  0  0  0  0  0  0  0
   22.7764   20.2621   35.7035 N   0  0  0  0  0  0  0  0  0  0  0  0
   23.6755   21.2169   35.5092 N   0  0  0  0  0  0  0  0  0  0  0  0
   24.4305   19.0311   37.4733 N   0  0  0  0  0  0  0  0  0  0  0  0
   31.0051   19.3031   36.5133 Cl  0  0  0  0  0  0  0  0  0  0  0  0
  1  5  2  0
  1 33  1  0
  1 34  1  0
  2  8  1  0
  2 34  2  0
  3 31  1  0
  4 33  1  0
  5 10  1  0
  6 12  1  0
  6 35  1  0
  7 11  1  0
  7 35  1  0
  8 10  2  0
  9 11  2  0
  9 13  1  0
 12 10  1  1
 11 37  1  0
 12 14  1  0
 13 15  2  0
 13 31  1  0
 14 36  1  0
 15 18  1  0
 16 17  1  0
 17 19  2  0
 17 20  1  0
 18 24  1  0
 18 37  2  0
 19 22  1  0
 20 21  2  0
 21 23  1  0
 22 23  2  0
 22 32  1  0
 24 25  1  0
 24 26  2  0
 25 27  2  0
 25 32  1  0
 26 28  1  0
 27 29  1  0
 28 29  2  0
 29 38  1  0
 30 33  1  0
 35 36  1  0
M  END
$$$$

     RDKit          3D

 40 46  0  0  0  0  0  0  0  0999 V2000
   21.2467   18.6441   29.9005 C   0  0  0  0  0  0  0  0  0  0  0  0
   21.9358   22.9439   30.5547 C   0  0  0  0  0  0  0  0  0  0  0  0
   21.8586   24.2195   31.1000 C   0  0  0  0  0  0  0  0  0  0  0  0
   22.1276   24.4199   32.4361 C   0  0  0  0  0  0  0  0  0  0  0  0
   22.2481   20.5596   30.7674 C   0  0  0  0  0  0  0  0  0  0  0  0
   22.2482   21.8764   31.3817 C   0  0  0  0  0  0  0  0  0  0  0  0
   22.5652   16.8509   38.8517 C   0  0  0  0  0  0  0  0  0  0  0  0
   22.6848   18.1465   38.2757 C   0  0  0  0  0  0  0  0  0  0  0  0
   22.5374   22.0266   32.7577 C   0  0  0  0  0  0  0  0  0  0  0  0
   22.4829   23.3490   33.2593 C   0  0  0  0  0  0  0  0  0  0  0  0
   22.8468   20.9406   33.6770 C   0  0  0  0  0  0  0  0  0  0  0  0
   22.8643   22.5026   35.5478 C   0  0  0  0  0  0  0  0  0  0  0  0
   22.7246   23.6144   34.6727 C   0  0  0  0  0  0  0  0  0  0  0  0
   23.0094   20.0923   36.0480 C   0  0  0  0  0  0  0  0  0  0  0  0
   23.0444   21.1820   35.0639 C   0  0  0  0  0  0  0  0  0  0  0  0
   23.7061   16.0429   38.8804 C   0  0  0  0  0  0  0  0  0  0  0  0
   23.5633   18.7623   30.3876 C   0  0  0  0  0  0  0  0  0  0  0  0
   23.9404   18.6076   37.7517 C   0  0  0  0  0  0  0  0  0  0  0  0
   24.9564   16.5227   38.4296 C   0  0  0  0  0  0  0  0  0  0  0  0
   24.8716   18.1444   30.6690 C   0  0  0  0  0  0  0  0  0  0  0  0
   25.0246   17.3203   33.1073 C   0  0  0  0  0  0  0  0  0  0  0  0
   25.0930   17.7995   37.8823 C   0  0  0  0  0  0  0  0  0  0  0  0
   25.2054   18.3972   32.1576 C   0  0  0  0  0  0  0  0  0  0  0  0
   25.5073   17.4748   34.4343 C   0  0  0  0  0  0  0  0  0  0  0  0
   25.8068   19.5670   32.5984 C   0  0  0  0  0  0  0  0  0  0  0  0
   26.1840   18.6309   34.8184 C   0  0  0  0  0  0  0  0  0  0  0  0
   26.4575   18.2908   37.4675 C   0  0  0  0  0  0  0  0  0  0  0  0
   26.3123   19.6805   33.8609 C   0  0  0  0  0  0  0  0  0  0  0  0
   26.8836   18.6955   36.1344 C   0  0  0  0  0  0  0  0  0  0  0  0
   27.4290   18.2884   38.5091 C   0  0  0  0  0  0  0  0  0  0  0  0
   28.2611   19.1533   36.0000 C   0  0  0  0  0  0  0  0  0  0  0  0
   28.7354   18.6746   38.2796 C   0  0  0  0  0  0  0  0  0  0  0  0
   29.1624   19.1289   37.0488 C   0  0  0  0  0  0  0  0  0  0  0  0
   20.2826   17.9460   29.5332 O   0  0  0  0  0  0  0  0  0  0  0  0
   21.1139   19.9117   30.3771 N   0  0  0  0  0  0  0  0  0  0  0  0
   22.5046   18.0672   29.9004 N   0  0  0  0  0  0  0  0  0  0  0  0
   23.4565   19.9768   30.6738 N   0  0  0  0  0  0  0  0  0  0  0  0
   23.9696   19.8013   37.0382 N   0  0  0  0  0  0  0  0  0  0  0  0
   24.4509   15.7499   32.6301 Cl  0  0  0  0  0  0  0  0  0  0  0  0
   30.8217   19.4761   36.7650 Cl  0  0  0  0  0  0  0  0  0  0  0  0
  1 34  2  0
  1 35  1  0
  1 36  1  0
  2  3  1  0
  2  6  2  0
  3  4  2  0
  4 10  1  0
  5  6  1  0
  5 35  2  0
  5 37  1  0
  6  9  1  0
  7  8  1  0
  7 16  2  0
  8 18  2  0
  9 10  2  0
  9 11  1  0
 10 13  1  0
 11 15  1  0
 12 13  1  0
 12 15  2  0
 14 15  1  0
 14 38  2  3
 16 19  1  0
 17 20  1  0
 17 36  1  0
 17 37  2  0
 18 22  1  0
 18 38  1  0
 19 22  2  0
 20 23  1  0
 21 23  2  0
 21 24  1  0
 21 39  1  0
 22 27  1  0
 23 25  1  0
 24 26  2  0
 25 28  2  0
 26 28  1  0
 26 29  1  0
 27 29  2  0
 27 30  1  0
 29 31  1  0
 30 32  2  0
 31 33  2  0
 32 33  1  0
 33 40  1  0
M  END
$$$$

     RDKit          3D

 38 43  0  0  0  0  0  0  0  0999 V2000
   20.0842   26.0923   31.9644 C   0  0  0  0  0  0  0  0  0  0  0  0
   21.1210   25.0392   32.3718 C   0  0  0  0  0  0  0  0  0  0  0  0
   21.2749   23.7733   31.8081 C   0  0  0  0  0  0  0  0  0  0  0  0
   21.4840   16.6565   42.3479 C   0  0  0  0  0  0  0  0  0  0  0  0
   21.7073   18.8296   29.8762 C   0  0  0  0  0  0  0  0  0  0  0  0
   21.5249   18.7500   31.2481 C   0  0  0  0  0  0  0  0  0  0  0  0
   22.0142   19.7852   32.0918 C   0  0  0  0  0  0  0  0  0  0  0  0
   22.3364   19.9306   29.2530 C   0  0  0  0  0  0  0  0  0  0  0  0
   22.4327   23.2242   32.5605 C   0  0  0  0  0  0  0  0  0  0  0  0
   22.5064   16.2873   39.5567 C   0  0  0  0  0  0  0  0  0  0  0  0
   22.6891   17.3680   41.8404 C   0  0  0  0  0  0  0  0  0  0  0  0
   22.6537   20.9194   31.4864 C   0  0  0  0  0  0  0  0  0  0  0  0
   22.7574   20.9908   30.0650 C   0  0  0  0  0  0  0  0  0  0  0  0
   22.8316   24.1818   33.5077 C   0  0  0  0  0  0  0  0  0  0  0  0
   23.0239   16.1662   38.2572 C   0  0  0  0  0  0  0  0  0  0  0  0
   23.1694   17.2006   40.4207 C   0  0  0  0  0  0  0  0  0  0  0  0
   23.0986   21.9708   32.3175 C   0  0  0  0  0  0  0  0  0  0  0  0
   24.1286   16.9374   37.8588 C   0  0  0  0  0  0  0  0  0  0  0  0
   23.9643   19.0308   35.8081 C   0  0  0  0  0  0  0  0  0  0  0  0
   24.3426   17.5984   35.5958 C   0  0  1  0  0  0  0  0  0  0  0  0
   24.2427   18.0002   39.9870 C   0  0  0  0  0  0  0  0  0  0  0  0
   24.7743   15.9473   33.8270 C   0  0  0  0  0  0  0  0  0  0  0  0
   24.8948   17.2530   34.2662 C   0  0  0  0  0  0  0  0  0  0  0  0
   24.7100   17.8789   38.6885 C   0  0  0  0  0  0  0  0  0  0  0  0
   25.1675   15.6534   32.5374 C   0  0  0  0  0  0  0  0  0  0  0  0
   24.9942   21.4551   32.4510 C   0  0  0  0  0  0  0  0  0  0  0  0
   25.4591   18.2499   33.4891 C   0  0  0  0  0  0  0  0  0  0  0  0
   25.5675   19.6361   34.0118 C   0  0  1  0  0  0  0  0  0  0  0  0
   25.7436   16.6081   31.7273 C   0  0  0  0  0  0  0  0  0  0  0  0
   25.9164   17.8867   32.1947 C   0  0  0  0  0  0  0  0  0  0  0  0
   26.0762   20.6708   33.0579 C   0  0  1  0  0  0  0  0  0  0  0  0
   26.5001   18.9234   31.2779 C   0  0  0  0  0  0  0  0  0  0  0  0
   27.0723   20.0938   32.0595 C   0  0  0  0  0  0  0  0  0  0  0  0
   24.0307   21.9100   33.0331 O   0  0  0  0  0  0  0  0  0  0  0  0
   22.0431   25.2744   33.3786 N   0  0  0  0  0  0  0  0  0  0  0  0
   24.6882   16.7088   36.6004 N   0  0  0  0  0  0  0  0  0  0  0  0
   24.8180   19.9755   35.1224 N   0  0  0  0  0  0  0  0  0  0  0  0
   22.5128   19.8767   27.6323 Cl  0  0  0  0  0  0  0  0  0  0  0  0
  1  2  1  0
  2  3  1  0
  2 35  1  0
  3  9  1  0
  4 11  1  0
  5  6  2  0
  5  8  1  0
  6  7  1  0
  7 12  2  0
  8 13  2  0
  8 38  1  0
  9 14  1  0
  9 17  2  3
 10 15  2  0
 10 16  1  0
 11 16  1  0
 12 13  1  0
 12 17  1  0
 14 35  1  0
 15 18  1  0
 16 21  2  0
 17 34  1  0
 18 24  2  0
 18 36  1  0
 19 20  1  0
 19 37  1  0
 20 23  1  0
 20 36  1  1
 21 24  1  0
 22 23  1  0
 22 25  2  0
 23 27  2  0
 25 29  1  0
 31 26  1  6
 26 34  1  0
 27 28  1  0
 27 30  1  0
 28 31  1  0
 28 37  1  6
 29 30  2  0
 30 32  1  0
 31 33  1  0
 32 33  1  0
M  END
$$$$

     RDKit          3D

 40 45  0  0  0  0  0  0  0  0999 V2000
   21.1448   18.9093   30.1319 C   0  0  0  0  0  0  0  0  0  0  0  0
   22.1021   16.5842   40.4550 C   0  0  0  0  0  0  0  0  0  0  0  0
   22.1806   23.4086   29.7182 C   0  0  0  0  0  0  0  0  0  0  0  0
   22.3222   16.1663   39.1809 C   0  0  0  0  0  0  0  0  0  0  0  0
   22.3369   22.1283   29.9943 C   0  0  0  0  0  0  0  0  0  0  0  0
   22.3361   24.0173   31.9309 C   0  0  0  0  0  0  0  0  0  0  0  0
   22.5873   19.3934   30.4217 C   0  0  1  0  0  0  0  0  0  0  0  0
   22.4794   21.6992   31.3168 C   0  0  0  0  0  0  0  0  0  0  0  0
   22.4923   22.6754   32.3021 C   0  0  0  0  0  0  0  0  0  0  0  0
   22.7506   19.6199   34.0499 C   0  0  0  0  0  0  0  0  0  0  0  0
   23.0050   17.4083   41.0651 C   0  0  0  0  0  0  0  0  0  0  0  0
   23.1873   20.0316   29.1317 C   0  0  0  0  0  0  0  0  0  0  0  0
   23.3935   16.6278   38.4660 C   0  0  0  0  0  0  0  0  0  0  0  0
   23.2746   19.9087   32.7869 C   0  0  2  0  0  0  0  0  0  0  0  0
   23.8540   18.8523   36.2264 C   0  0  0  0  0  0  0  0  0  0  0  0
   24.1025   17.9047   40.3239 C   0  0  0  0  0  0  0  0  0  0  0  0
   24.2472   17.5790   38.9863 C   0  0  0  0  0  0  0  0  0  0  0  0
   24.7095   19.8382   32.9027 C   0  0  1  0  0  0  0  0  0  0  0  0
   25.1446   18.6342   36.8592 C   0  0  0  0  0  0  0  0  0  0  0  0
   25.0044   19.5584   34.2481 C   0  0  0  0  0  0  0  0  0  0  0  0
   25.3386   18.1146   38.1653 C   0  0  0  0  0  0  0  0  0  0  0  0
   25.6980   19.5756   31.8741 C   0  0  0  0  0  0  0  0  0  0  0  0
   25.9131   18.2471   31.4859 C   0  0  0  0  0  0  0  0  0  0  0  0
   26.2992   19.0575   36.1295 C   0  0  0  0  0  0  0  0  0  0  0  0
   26.3920   20.6070   31.2360 C   0  0  0  0  0  0  0  0  0  0  0  0
   26.6134   17.9835   38.6810 C   0  0  0  0  0  0  0  0  0  0  0  0
   26.8128   17.9536   30.4883 C   0  0  0  0  0  0  0  0  0  0  0  0
   27.3131   20.3211   30.2240 C   0  0  0  0  0  0  0  0  0  0  0  0
   27.7025   18.4425   37.9807 C   0  0  0  0  0  0  0  0  0  0  0  0
   27.5282   18.9795   29.8813 C   0  0  0  0  0  0  0  0  0  0  0  0
   27.5554   18.9687   36.7222 C   0  0  0  0  0  0  0  0  0  0  0  0
   20.2977   19.9132   29.6235 O   0  0  0  0  0  0  0  0  0  0  0  0
   22.1863   24.3815   30.6344 N   0  0  0  0  0  0  0  0  0  0  0  0
   22.4319   25.0226   32.8840 N   0  0  0  0  0  0  0  0  0  0  0  0
   22.6116   20.3174   31.6117 N   0  0  0  0  0  0  0  0  0  0  0  0
   22.8948   19.2300   27.9627 N   0  0  0  0  0  0  0  0  0  0  0  0
   23.8349   19.3327   34.9195 N   0  0  0  0  0  0  0  0  0  0  0  0
   26.2385   19.4538   34.8019 N   0  0  0  0  0  0  0  0  0  0  0  0
   20.9208   16.2044   41.1064 F   0  0  0  0  0  0  0  0  0  0  0  0
   27.1104   16.2724   30.0837 Cl  0  0  0  0  0  0  0  0  0  0  0  0
  7  1  1  6
  1 32  1  0
  2  4  2  0
  2 11  1  0
  2 39  1  0
  3  5  2  0
  3 33  1  0
  4 13  1  0
  5  8  1  0
  6  9  1  0
  6 33  1  0
  6 34  2  0
  7 12  1  0
  7 35  1  0
  8  9  2  0
  8 35  1  0
 10 14  1  0
 10 37  1  0
 11 16  2  0
 12 36  1  0
 13 17  2  0
 14 18  1  0
 14 35  1  1
 15 19  1  0
 15 37  1  0
 16 17  1  0
 17 21  1  0
 18 20  1  0
 18 22  1  6
 19 21  1  0
 19 24  2  0
 20 37  1  0
 20 38  2  0
 21 26  2  0
 22 23  2  0
 22 25  1  0
 23 27  1  0
 24 31  1  0
 24 38  1  0
 25 28  2  0
 26 29  1  0
 27 30  2  0
 27 40  1  0
 28 30  1  0
 29 31  2  0
M  END
$$$$

     RDKit          3D

 32 35  0  0  0  0  0  0  0  0999 V2000
   21.6513   15.9558   40.4105 C   0  0  0  0  0  0  0  0  0  0  0  0
   21.6949   16.6593   41.6416 C   0  0  0  0  0  0  0  0  0  0  0  0
   21.6168   21.2937   29.8511 C   0  0  0  0  0  0  0  0  0  0  0  0
   22.0998   20.4947   28.8228 C   0  0  0  0  0  0  0  0  0  0  0  0
   22.0056   22.4108   32.0301 C   0  0  0  0  0  0  0  0  0  0  0  0
   22.4439   21.5700   30.9888 C   0  0  0  0  0  0  0  0  0  0  0  0
   22.4894   16.3535   39.2727 C   0  0  0  0  0  0  0  0  0  0  0  0
   22.7664   17.5993   41.8619 C   0  0  0  0  0  0  0  0  0  0  0  0
   22.8197   22.6788   33.1077 C   0  0  0  0  0  0  0  0  0  0  0  0
   23.3637   19.9333   28.8978 C   0  0  0  0  0  0  0  0  0  0  0  0
   23.7078   17.0867   39.6056 C   0  0  0  0  0  0  0  0  0  0  0  0
   23.8344   17.7765   40.8456 C   0  0  0  0  0  0  0  0  0  0  0  0
   23.7409   20.9664   31.0615 C   0  0  0  0  0  0  0  0  0  0  0  0
   24.1522   20.1764   29.9778 C   0  0  0  0  0  0  0  0  0  0  0  0
   24.1017   22.1186   33.2328 C   0  0  0  0  0  0  0  0  0  0  0  0
   24.3610   18.1221   34.3027 C   0  0  0  0  0  0  0  0  0  0  0  0
   24.6377   17.4425   38.4673 C   0  0  0  0  0  0  0  0  0  0  0  0
   24.4678   19.0462   36.6222 C   0  0  0  0  0  0  0  0  0  0  0  0
   24.6095   21.2631   32.2113 C   0  0  0  0  0  0  0  0  0  0  0  0
   24.8991   15.9073   33.1959 C   0  0  0  0  0  0  0  0  0  0  0  0
   24.9103   17.9619   35.6811 C   0  0  0  0  0  0  0  0  0  0  0  0
   25.3804   17.2879   33.4571 C   0  0  1  0  0  0  0  0  0  0  0  0
   26.4329   18.5092   31.5919 C   0  0  0  0  0  0  0  0  0  0  0  0
   26.6131   19.9143   31.5425 C   0  0  0  0  0  0  0  0  0  0  0  0
   27.0933   17.6915   30.6521 C   0  0  0  0  0  0  0  0  0  0  0  0
   27.3904   20.4419   30.5351 C   0  0  0  0  0  0  0  0  0  0  0  0
   27.9058   18.2493   29.6625 C   0  0  0  0  0  0  0  0  0  0  0  0
   28.0419   19.6236   29.6296 C   0  0  0  0  0  0  0  0  0  0  0  0
   24.0244   18.5063   37.8027 O   0  0  0  0  0  0  0  0  0  0  0  0
   25.4816   18.0000   32.3265 O   0  0  0  0  0  0  0  0  0  0  0  0
   25.8797   20.7453   32.4307 N   0  0  0  0  0  0  0  0  0  0  0  0
   26.7636   16.0174   30.6149 Cl  0  0  0  0  0  0  0  0  0  0  0  0
  1  2  2  0
  1  7  1  0
  2  8  1  0
  3  4  2  0
  3  6  1  0
  4 10  1  0
  5  6  1  0
  5  9  2  0
  6 13  2  0
  7 11  1  0
  8 12  1  0
  9 15  1  0
 10 14  2  0
 11 12  2  0
 11 17  1  0
 13 14  1  0
 13 19  1  0
 15 19  1  0
 16 21  1  0
 16 22  1  0
 17 29  1  0
 18 21  1  0
 18 29  1  0
 19 31  2  3
 22 20  1  6
 22 30  1  0
 23 24  1  0
 23 25  2  0
 23 30  1  0
 24 26  2  0
 24 31  1  0
 25 27  1  0
 25 32  1  0
 26 28  1  0
 27 28  2  0
M  END
$$$$

     RDKit          3D

 23 24  0  0  0  0  0  0  0  0999 V2000
   21.9681   19.6853   31.1375 C   0  0  0  0  0  0  0  0  0  0  0  0
   22.2845   19.6258   32.4959 C   0  0  0  0  0  0  0  0  0  0  0  0
   22.6239   16.4005   39.0649 C   0  0  0  0  0  0  0  0  0  0  0  0
   22.4800   18.9899   28.7482 C   0  0  0  0  0  0  0  0  0  0  0  0
   22.5897   19.1250   35.3108 C   0  0  0  0  0  0  0  0  0  0  0  0
   22.7685   19.0176   30.2087 C   0  0  0  0  0  0  0  0  0  0  0  0
   22.8025   18.9650   36.6577 C   0  0  0  0  0  0  0  0  0  0  0  0
   23.4169   18.9371   32.9432 C   0  0  0  0  0  0  0  0  0  0  0  0
   23.6774   18.8979   34.4135 C   0  0  0  0  0  0  0  0  0  0  0  0
   23.9040   18.3382   30.6467 C   0  0  0  0  0  0  0  0  0  0  0  0
   24.0486   18.6535   37.1473 C   0  0  0  0  0  0  0  0  0  0  0  0
   24.2405   18.2780   32.0142 C   0  0  0  0  0  0  0  0  0  0  0  0
   24.9495   18.6630   34.9084 C   0  0  0  0  0  0  0  0  0  0  0  0
   25.1421   18.5333   36.3115 C   0  0  0  0  0  0  0  0  0  0  0  0
   27.1787   19.3340   37.3467 C   0  0  0  0  0  0  0  0  0  0  0  0
   28.0274   18.7803   38.4623 C   0  0  0  0  0  0  0  0  0  0  0  0
   21.7816   18.0435   28.2245 O   0  0  0  0  0  0  0  0  0  0  0  0
   23.0814   19.8415   27.9708 O   0  0  0  0  0  0  0  0  0  0  0  0
   24.0362   17.7583   40.6482 O   0  0  0  0  0  0  0  0  0  0  0  0
   24.1799   18.4754   38.4820 O   0  0  0  0  0  0  0  0  0  0  0  0
   25.1480   16.3901   38.8795 O   0  0  0  0  0  0  0  0  0  0  0  0
   26.3708   18.3071   36.8023 O   0  0  0  0  0  0  0  0  0  0  0  0
   24.1075   17.2480   39.3653 S   0  0  0  0  0  0  0  0  0  0  0  0
  1  2  1  0
  1  6  1  0
  2  8  2  0
  3 23  1  0
  4  6  1  0
  4 17  2  0
  4 18  1  0
  5  7  2  0
  5  9  1  0
  6 10  2  0
  7 11  1  0
  8  9  1  0
  8 12  1  0
  9 13  2  0
 10 12  1  0
 11 14  2  0
 11 20  1  0
 13 14  1  0
 14 22  1  0
 15 16  1  0
 15 22  1  0
 19 23  1  0
 20 23  1  0
 21 23  1  0
M  END
$$$$

     RDKit          3D

 44 49  0  0  0  0  0  0  0  0999 V2000
   21.6276   22.2341   31.3209 C   0  0  0  0  0  0  0  0  0  0  0  0
   21.7146   15.5410   40.5867 C   0  0  0  0  0  0  0  0  0  0  0  0
   21.9218   18.3351   28.0041 C   0  0  0  0  0  0  0  0  0  0  0  0
   21.9560   24.5779   32.1790 C   0  0  1  0  0  0  0  0  0  0  0  0
   22.0782   16.3221   41.7076 C   0  0  0  0  0  0  0  0  0  0  0  0
   21.9599   18.2618   29.4059 C   0  0  0  0  0  0  0  0  0  0  0  0
   22.0425   23.6690   30.9717 C   0  0  0  0  0  0  0  0  0  0  0  0
   22.2573   15.8371   39.3381 C   0  0  0  0  0  0  0  0  0  0  0  0
   22.2380   20.1479   32.6417 C   0  0  2  0  0  0  0  0  0  0  0  0
   22.6976   19.0395   31.6370 C   0  0  0  0  0  0  0  0  0  0  0  0
   22.5669   19.3545   27.3882 C   0  0  0  0  0  0  0  0  0  0  0  0
   22.6724   19.1785   30.1618 C   0  0  0  0  0  0  0  0  0  0  0  0
   22.5886   21.6968   32.3187 C   0  0  2  0  0  0  0  0  0  0  0  0
   22.7048   24.0316   33.3451 C   0  0  0  0  0  0  0  0  0  0  0  0
   23.1873   16.8834   39.1586 C   0  0  0  0  0  0  0  0  0  0  0  0
   22.9716   17.4159   41.5431 C   0  0  0  0  0  0  0  0  0  0  0  0
   23.3692   20.1650   29.4841 C   0  0  0  0  0  0  0  0  0  0  0  0
   23.3097   20.2425   28.1087 C   0  0  0  0  0  0  0  0  0  0  0  0
   23.3871   26.6600   32.2695 C   0  0  0  0  0  0  0  0  0  0  0  0
   23.5020   17.6642   40.2600 C   0  0  0  0  0  0  0  0  0  0  0  0
   23.7528   16.9981   37.7854 C   0  0  0  0  0  0  0  0  0  0  0  0
   23.7768   28.3508   31.4890 C   0  0  0  0  0  0  0  0  0  0  0  0
   24.0710   19.1783   35.5987 C   0  0  0  0  0  0  0  0  0  0  0  0
   24.0791   19.5230   34.2429 C   0  0  0  0  0  0  0  0  0  0  0  0
   25.1849   16.9834   33.2537 C   0  0  0  0  0  0  0  0  0  0  0  0
   24.9821   17.7970   37.4940 C   0  0  0  0  0  0  0  0  0  0  0  0
   25.1226   18.8058   36.4975 C   0  0  0  0  0  0  0  0  0  0  0  0
   25.2227   19.5307   33.3481 C   0  0  0  0  0  0  0  0  0  0  0  0
   25.5035   15.7843   32.5670 C   0  0  0  0  0  0  0  0  0  0  0  0
   25.5304   18.2268   32.6969 C   0  0  0  0  0  0  0  0  0  0  0  0
   26.1682   15.8803   31.3384 C   0  0  0  0  0  0  0  0  0  0  0  0
   26.1367   17.4850   38.2504 C   0  0  0  0  0  0  0  0  0  0  0  0
   26.2024   18.2753   31.4921 C   0  0  0  0  0  0  0  0  0  0  0  0
   26.2817   19.5642   36.4285 C   0  0  0  0  0  0  0  0  0  0  0  0
   26.5162   17.1030   30.8302 C   0  0  0  0  0  0  0  0  0  0  0  0
   27.3007   18.2104   38.1412 C   0  0  0  0  0  0  0  0  0  0  0  0
   27.3624   19.2790   37.2428 C   0  0  0  0  0  0  0  0  0  0  0  0
   25.9958   20.4590   33.2070 O   0  0  0  0  0  0  0  0  0  0  0  0
   22.0531   19.7313   35.0293 N   0  0  0  0  0  0  0  0  0  0  0  0
   22.1752   25.9530   31.8198 N   0  0  0  0  0  0  0  0  0  0  0  0
   22.5263   22.5785   33.5297 N   0  0  0  0  0  0  0  0  0  0  0  0
   22.8161   19.3575   36.0246 N   0  0  0  0  0  0  0  0  0  0  0  0
   22.7885   19.8128   33.9236 N   0  0  0  0  0  0  0  0  0  0  0  0
   21.2016   17.2977   29.9531 F   0  0  0  0  0  0  0  0  0  0  0  0
  1  7  1  0
 13  1  1  6
  2  5  2  0
  2  8  1  0
  3  6  1  0
  3 11  1  0
  4  7  1  6
  4 14  1  0
  4 40  1  0
  5 16  1  0
  6 12  2  0
  6 44  1  0
  8 15  2  0
  9 10  1  6
  9 13  1  0
  9 43  1  0
 10 12  1  0
 11 18  2  0
 12 17  1  0
 13 41  1  0
 14 41  1  0
 15 20  1  0
 15 21  1  0
 16 20  2  0
 17 18  1  0
 19 22  1  0
 19 40  2  3
 21 26  1  0
 23 24  2  0
 23 27  1  0
 23 42  1  0
 24 28  1  0
 24 43  1  0
 25 29  2  0
 25 30  1  0
 26 27  1  0
 26 32  2  0
 27 34  2  0
 28 30  1  0
 28 38  2  0
 29 31  1  0
 30 33  2  0
 31 35  2  0
 32 36  1  0
 33 35  1  0
 34 37  1  0
 36 37  2  0
 39 42  1  0
 39 43  1  0
M  END
$$$$

     RDKit          3D

 38 42  0  0  0  0  0  0  0  0999 V2000
   21.4560   17.1824   28.6349 C   0  0  0  0  0  0  0  0  0  0  0  0
   21.6212   15.7214   41.6340 C   0  0  0  0  0  0  0  0  0  0  0  0
   21.4749   19.2382   29.8777 C   0  0  0  0  0  0  0  0  0  0  0  0
   21.6863   19.2651   31.2653 C   0  0  0  0  0  0  0  0  0  0  0  0
   21.8170   16.1522   40.3242 C   0  0  0  0  0  0  0  0  0  0  0  0
   21.7189   17.5280   27.1531 C   0  0  0  0  0  0  0  0  0  0  0  0
   22.1641   18.5734   38.1976 C   0  0  0  0  0  0  0  0  0  0  0  0
   21.9787   20.2468   29.0550 C   0  0  0  0  0  0  0  0  0  0  0  0
   22.4238   20.2810   31.8563 C   0  0  0  0  0  0  0  0  0  0  0  0
   22.6550   17.2426   40.2816 C   0  0  0  0  0  0  0  0  0  0  0  0
   22.5850   19.1104   36.9741 C   0  0  0  0  0  0  0  0  0  0  0  0
   22.6372   20.3388   33.3514 C   0  0  0  0  0  0  0  0  0  0  0  0
   22.7018   21.2854   29.6408 C   0  0  0  0  0  0  0  0  0  0  0  0
   22.9094   21.3067   31.0096 C   0  0  0  0  0  0  0  0  0  0  0  0
   23.0089   17.5541   41.6053 C   0  0  0  0  0  0  0  0  0  0  0  0
   23.0894   17.9436   39.0448 C   0  0  0  0  0  0  0  0  0  0  0  0
   23.1810   19.1397   34.0790 C   0  0  0  0  0  0  0  0  0  0  0  0
   23.9166   19.0214   36.5558 C   0  0  0  0  0  0  0  0  0  0  0  0
   24.4498   18.0259   38.6710 C   0  0  0  0  0  0  0  0  0  0  0  0
   24.2824   19.3996   35.1000 C   0  0  1  0  0  0  0  0  0  0  0  0
   24.8559   18.6136   37.4514 C   0  0  0  0  0  0  0  0  0  0  0  0
   25.2000   16.5075   33.3029 C   0  0  0  0  0  0  0  0  0  0  0  0
   25.7044   17.5697   31.1465 C   0  0  0  0  0  0  0  0  0  0  0  0
   25.6108   17.7232   32.5524 C   0  0  0  0  0  0  0  0  0  0  0  0
   25.8961   18.9383   33.2477 C   0  0  0  0  0  0  0  0  0  0  0  0
   26.2362   18.6631   30.3960 C   0  0  0  0  0  0  0  0  0  0  0  0
   26.2789   18.7749   37.0831 C   0  0  0  0  0  0  0  0  0  0  0  0
   26.4233   19.9593   32.4939 C   0  0  0  0  0  0  0  0  0  0  0  0
   26.6276   19.0077   35.7071 C   0  0  0  0  0  0  0  0  0  0  0  0
   26.6174   19.8324   31.1031 C   0  0  0  0  0  0  0  0  0  0  0  0
   27.2997   18.7145   38.0403 C   0  0  0  0  0  0  0  0  0  0  0  0
   27.9734   19.1102   35.3901 C   0  0  0  0  0  0  0  0  0  0  0  0
   28.1786   20.6452   29.4134 C   0  0  0  0  0  0  0  0  0  0  0  0
   28.6305   18.9002   37.7112 C   0  0  0  0  0  0  0  0  0  0  0  0
   28.9869   19.0744   36.3661 C   0  0  0  0  0  0  0  0  0  0  0  0
   20.7202   18.2355   29.2641 O   0  0  0  0  0  0  0  0  0  0  0  0
   27.1434   20.8726   30.3633 O   0  0  0  0  0  0  0  0  0  0  0  0
   25.6157   19.0588   34.7099 N   0  0  0  0  0  0  0  0  0  0  0  0
  1  6  1  0
  1 36  1  0
  2  5  1  0
  3  4  2  0
  3  8  1  0
  3 36  1  0
  4  9  1  0
  5 10  1  0
  7 11  2  0
  7 16  1  0
  8 13  2  0
  9 12  1  0
  9 14  2  0
 10 15  1  0
 10 16  1  0
 11 18  1  0
 12 17  1  0
 13 14  1  0
 16 19  2  0
 20 17  1  6
 18 20  1  0
 18 21  2  0
 19 21  1  0
 20 38  1  0
 21 27  1  0
 22 24  1  0
 23 24  2  0
 23 26  1  0
 24 25  1  0
 25 28  2  0
 25 38  1  0
 26 30  2  0
 27 29  1  0
 27 31  1  0
 28 30  1  0
 29 32  2  0
 29 38  1  0
 30 37  1  0
 31 34  2  0
 32 35  1  0
 33 37  1  0
 34 35  1  0
M  END
$$$$

     RDKit          3D

 35 41  0  0  0  0  0  0  0  0999 V2000
   21.3249   18.7214   30.0114 C   0  0  0  0  0  0  0  0  0  0  0  0
   21.7044   19.4173   36.9279 C   0  0  0  0  0  0  0  0  0  0  0  0
   22.3211   20.5323   31.1733 C   0  0  0  0  0  0  0  0  0  0  0  0
   22.3171   21.7836   31.8939 C   0  0  0  0  0  0  0  0  0  0  0  0
   22.5716   18.1130   29.9924 C   0  0  0  0  0  0  0  0  0  0  0  0
   22.6044   21.8705   33.3587 C   0  0  0  0  0  0  0  0  0  0  0  0
   22.6432   23.1775   33.8394 C   0  0  0  0  0  0  0  0  0  0  0  0
   22.9081   16.5417   38.6697 C   0  0  0  0  0  0  0  0  0  0  0  0
   22.9071   17.7556   37.9771 C   0  0  0  0  0  0  0  0  0  0  0  0
   22.7372   20.7702   34.2457 C   0  0  0  0  0  0  0  0  0  0  0  0
   22.8893   21.0573   35.6348 C   0  0  0  0  0  0  0  0  0  0  0  0
   22.9271   22.3699   36.0641 C   0  0  0  0  0  0  0  0  0  0  0  0
   22.8205   23.4138   35.1726 C   0  0  0  0  0  0  0  0  0  0  0  0
   23.6716   18.7075   30.5927 C   0  0  0  0  0  0  0  0  0  0  0  0
   24.1024   15.9670   39.0774 C   0  0  0  0  0  0  0  0  0  0  0  0
   24.1170   18.3930   37.6747 C   0  0  0  0  0  0  0  0  0  0  0  0
   24.8430   17.6321   33.3063 C   0  0  0  0  0  0  0  0  0  0  0  0
   25.0107   18.0828   30.7584 C   0  0  0  0  0  0  0  0  0  0  0  0
   25.2822   16.6221   38.7728 C   0  0  0  0  0  0  0  0  0  0  0  0
   25.2929   17.7168   34.6216 C   0  0  0  0  0  0  0  0  0  0  0  0
   25.3092   17.7864   38.0236 C   0  0  0  0  0  0  0  0  0  0  0  0
   25.4702   18.2435   32.2289 C   0  0  0  0  0  0  0  0  0  0  0  0
   26.4408   18.5018   34.8986 C   0  0  0  0  0  0  0  0  0  0  0  0
   26.5855   18.3287   37.5959 C   0  0  0  0  0  0  0  0  0  0  0  0
   26.5795   19.0450   32.5199 C   0  0  0  0  0  0  0  0  0  0  0  0
   27.0336   18.6608   36.2844 C   0  0  0  0  0  0  0  0  0  0  0  0
   27.0423   19.1774   33.8269 C   0  0  0  0  0  0  0  0  0  0  0  0
   27.6264   18.5312   38.4780 C   0  0  0  0  0  0  0  0  0  0  0  0
   28.3328   19.1268   36.4137 C   0  0  0  0  0  0  0  0  0  0  0  0
   28.7192   19.0659   37.7837 C   0  0  0  0  0  0  0  0  0  0  0  0
   21.7447   18.2984   37.6373 O   0  0  0  0  0  0  0  0  0  0  0  0
   21.2170   19.9416   30.6623 N   0  0  0  0  0  0  0  0  0  0  0  0
   22.8959   20.0241   36.5902 N   0  0  0  0  0  0  0  0  0  0  0  0
   23.5390   19.9481   31.0922 N   0  0  0  0  0  0  0  0  0  0  0  0
   24.0753   19.5825   37.0282 N   0  0  0  0  0  0  0  0  0  0  0  0
  1  5  1  0
  1 32  2  0
  2 31  1  0
  2 33  1  0
  3  4  1  0
  3 32  1  0
  3 34  2  0
  4  6  1  0
  5 14  2  0
  6  7  2  0
  6 10  1  0
  7 13  1  0
  8  9  1  0
  8 15  2  0
  9 16  2  0
  9 31  1  0
 10 11  2  0
 11 12  1  0
 11 33  1  0
 12 13  2  0
 14 18  1  0
 14 34  1  0
 15 19  1  0
 16 21  1  0
 16 35  1  0
 17 20  1  0
 17 22  2  0
 18 22  1  0
 19 21  2  0
 20 23  2  0
 21 24  1  0
 22 25  1  0
 23 26  1  0
 23 27  1  0
 24 26  2  0
 24 28  1  0
 25 27  2  0
 26 29  1  0
 28 30  1  0
 29 30  1  0
 33 35  1  0
M  END
$$$$

     RDKit          3D

 40 45  0  0  0  0  0  0  0  0999 V2000
   21.6415   15.7023   40.2605 C   0  0  0  0  0  0  0  0  0  0  0  0
   21.6333   16.1699   41.5332 C   0  0  0  0  0  0  0  0  0  0  0  0
   21.9085   19.3640   35.9841 C   0  0  0  0  0  0  0  0  0  0  0  0
   22.3859   19.9786   32.6313 C   0  0  0  0  0  0  0  0  0  0  0  0
   22.6062   17.0987   41.9506 C   0  0  0  0  0  0  0  0  0  0  0  0
   22.6611   19.1973   28.3627 C   0  0  0  0  0  0  0  0  0  0  0  0
   23.0865   19.6882   35.1041 C   0  0  2  0  0  0  0  0  0  0  0  0
   23.3101   19.8804   33.7099 C   0  0  0  0  0  0  0  0  0  0  0  0
   23.2705   21.5512   28.2633 C   0  0  0  0  0  0  0  0  0  0  0  0
   23.5180   16.9734   39.7626 C   0  0  0  0  0  0  0  0  0  0  0  0
   23.5158   17.5347   41.0188 C   0  0  0  0  0  0  0  0  0  0  0  0
   24.3761   19.5138   35.6872 C   0  0  0  0  0  0  0  0  0  0  0  0
   24.5198   17.2288   38.7227 C   0  0  0  0  0  0  0  0  0  0  0  0
   25.4228   19.3555   32.2825 C   0  0  0  0  0  0  0  0  0  0  0  0
   25.2571   19.6832   34.6557 C   0  0  0  0  0  0  0  0  0  0  0  0
   25.6777   18.0097   32.0688 C   0  0  0  0  0  0  0  0  0  0  0  0
   26.1014   18.8931   37.0832 C   0  0  0  0  0  0  0  0  0  0  0  0
   26.0029   20.3409   31.5025 C   0  0  0  0  0  0  0  0  0  0  0  0
   26.6735   17.6073   31.2009 C   0  0  0  0  0  0  0  0  0  0  0  0
   26.5505   18.2990   38.2654 C   0  0  0  0  0  0  0  0  0  0  0  0
   26.6247   19.6446   34.8253 C   0  0  0  0  0  0  0  0  0  0  0  0
   27.0415   19.1934   36.0637 C   0  0  0  0  0  0  0  0  0  0  0  0
   27.0498   19.9310   30.5986 C   0  0  0  0  0  0  0  0  0  0  0  0
   27.4410   18.5598   30.4952 C   0  0  0  0  0  0  0  0  0  0  0  0
   27.9196   18.1994   38.4511 C   0  0  0  0  0  0  0  0  0  0  0  0
   27.8039   20.8821   29.8648 C   0  0  0  0  0  0  0  0  0  0  0  0
   28.4121   19.0913   36.2904 C   0  0  0  0  0  0  0  0  0  0  0  0
   28.5344   18.1747   29.7270 C   0  0  0  0  0  0  0  0  0  0  0  0
   28.8288   18.5894   37.4752 C   0  0  0  0  0  0  0  0  0  0  0  0
   28.8779   20.4548   29.0651 C   0  0  0  0  0  0  0  0  0  0  0  0
   29.2539   19.1362   29.0200 C   0  0  0  0  0  0  0  0  0  0  0  0
   20.6411   20.0454   30.4399 O   0  0  0  0  0  0  0  0  0  0  0  0
   21.7291   22.2738   30.5734 O   0  0  0  0  0  0  0  0  0  0  0  0
   22.7954   20.1836   31.4045 O   0  0  0  0  0  0  0  0  0  0  0  0
   24.7682   19.0974   36.8944 O   0  0  0  0  0  0  0  0  0  0  0  0
   25.6587   17.8351   39.1525 O   0  0  0  0  0  0  0  0  0  0  0  0
   22.5792   16.1290   39.4058 N   0  0  0  0  0  0  0  0  0  0  0  0
   22.6119   20.5110   28.9483 N   0  0  0  0  0  0  0  0  0  0  0  0
   24.6688   19.7367   33.4546 N   0  0  0  0  0  0  0  0  0  0  0  0
   21.7614   20.8498   30.3273 S   0  0  0  0  0  0  0  0  0  0  0  0
  1  2  2  0
  1 37  1  0
  2  5  1  0
  7  3  1  6
  4  8  2  3
  4 34  1  0
  5 11  2  0
  6 38  1  0
  7  8  1  0
  7 12  1  0
  8 39  1  0
  9 38  1  0
 10 11  1  0
 10 13  1  0
 10 37  2  0
 12 15  2  0
 12 35  1  0
 13 36  1  0
 14 16  2  0
 14 18  1  0
 14 39  1  0
 15 21  1  0
 15 39  1  0
 16 19  1  0
 17 20  1  0
 17 22  2  0
 17 35  1  0
 18 23  2  0
 19 24  2  0
 20 25  2  0
 20 36  1  0
 21 22  1  0
 22 27  1  0
 23 24  1  0
 23 26  1  0
 24 28  1  0
 25 29  1  0
 26 30  2  0
 27 29  2  0
 28 31  2  0
 30 31  1  0
 32 40  1  0
 33 40  1  0
 34 40  1  0
 38 40  1  0
M  END
$$$$

     RDKit          3D

 46 50  0  0  0  0  0  0  0  0999 V2000
   20.8818   19.1887   29.5069 C   0  0  0  0  0  0  0  0  0  0  0  0
   21.8683   16.2585   39.7934 C   0  0  0  0  0  0  0  0  0  0  0  0
   21.8505   19.0686   30.5722 C   0  0  0  0  0  0  0  0  0  0  0  0
   22.3123   16.9844   40.9130 C   0  0  0  0  0  0  0  0  0  0  0  0
   22.3025   24.7654   29.7060 C   0  0  0  0  0  0  0  0  0  0  0  0
   22.5098   16.3201   38.5904 C   0  0  0  0  0  0  0  0  0  0  0  0
   22.5238   23.3867   29.4396 C   0  0  0  0  0  0  0  0  0  0  0  0
   22.7100   20.5486   32.9647 C   0  0  0  0  0  0  0  0  0  0  0  0
   22.9134   21.2919   29.8325 C   0  0  0  0  0  0  0  0  0  0  0  0
   23.0931   19.9527   30.5192 C   0  0  1  0  0  0  0  0  0  0  0  0
   23.1520   20.6863   34.2509 C   0  0  0  0  0  0  0  0  0  0  0  0
   23.1962   21.5411   28.4957 C   0  0  0  0  0  0  0  0  0  0  0  0
   23.6609   17.1246   38.4847 C   0  0  0  0  0  0  0  0  0  0  0  0
   23.4650   17.7510   40.7847 C   0  0  0  0  0  0  0  0  0  0  0  0
   23.5893   20.1882   31.9502 C   0  0  0  0  0  0  0  0  0  0  0  0
   24.1323   17.8456   39.5795 C   0  0  0  0  0  0  0  0  0  0  0  0
   24.4312   17.1754   37.1581 C   0  0  0  0  0  0  0  0  0  0  0  0
   24.4825   20.4942   34.5413 C   0  0  0  0  0  0  0  0  0  0  0  0
   24.9378   20.0466   32.2473 C   0  0  0  0  0  0  0  0  0  0  0  0
   25.3743   19.5378   36.3857 C   0  0  0  0  0  0  0  0  0  0  0  0
   25.3953   20.1687   33.5431 C   0  0  0  0  0  0  0  0  0  0  0  0
   25.9521   19.8232   31.2318 C   0  0  0  0  0  0  0  0  0  0  0  0
   26.2920   18.5235   30.8713 C   0  0  0  0  0  0  0  0  0  0  0  0
   26.6149   20.9116   30.6605 C   0  0  0  0  0  0  0  0  0  0  0  0
   26.8180   19.4429   36.5923 C   0  0  0  0  0  0  0  0  0  0  0  0
   27.2757   18.3182   29.9056 C   0  0  0  0  0  0  0  0  0  0  0  0
   27.2857   18.9059   37.7337 C   0  0  0  0  0  0  0  0  0  0  0  0
   27.5821   20.6905   29.7220 C   0  0  0  0  0  0  0  0  0  0  0  0
   27.9351   19.4078   29.3560 C   0  0  0  0  0  0  0  0  0  0  0  0
   27.7535   19.9225   35.6551 C   0  0  0  0  0  0  0  0  0  0  0  0
   28.5965   18.7008   37.9775 C   0  0  0  0  0  0  0  0  0  0  0  0
   28.9617   19.2110   28.2713 C   0  0  0  0  0  0  0  0  0  0  0  0
   29.1156   19.6824   35.8389 C   0  0  0  0  0  0  0  0  0  0  0  0
   29.5053   19.0813   37.0199 C   0  0  0  0  0  0  0  0  0  0  0  0
   20.1400   20.2213   29.4622 O   0  0  0  0  0  0  0  0  0  0  0  0
   21.3003   18.6617   28.3413 O   0  0  0  0  0  0  0  0  0  0  0  0
   21.6303   16.9018   42.0754 O   0  0  0  0  0  0  0  0  0  0  0  0
   21.7383   25.1522   30.7702 O   0  0  0  0  0  0  0  0  0  0  0  0
   22.4727   22.4246   30.3319 N   0  0  0  0  0  0  0  0  0  0  0  0
   22.9336   22.8938   28.2261 N   0  0  0  0  0  0  0  0  0  0  0  0
   22.7130   25.6389   28.7718 N   0  0  0  0  0  0  0  0  0  0  0  0
   24.4403   18.5280   36.5556 N   0  0  0  0  0  0  0  0  0  0  0  0
   24.9473   20.6537   35.8048 N   0  0  0  0  0  0  0  0  0  0  0  0
   28.4913   18.4442   27.3125 F   0  0  0  0  0  0  0  0  0  0  0  0
   29.3053   20.4242   27.6946 F   0  0  0  0  0  0  0  0  0  0  0  0
   30.1497   18.8162   28.8142 F   0  0  0  0  0  0  0  0  0  0  0  0
  1  3  1  0
  1 35  2  0
  1 36  1  0
  2  4  2  0
  2  6  1  0
 10  3  1  1
  4 14  1  0
  4 37  1  0
  5  7  1  0
  5 38  2  0
  5 41  1  0
  6 13  2  0
  7 39  2  0
  7 40  1  0
  8 11  2  0
  8 15  1  0
  9 10  1  0
  9 12  1  0
  9 39  1  0
 10 15  1  0
 11 18  1  0
 12 40  1  0
 13 16  1  0
 13 17  1  0
 14 16  2  0
 15 19  2  0
 17 42  1  0
 18 21  2  0
 18 43  1  0
 19 21  1  0
 19 22  1  0
 20 25  1  0
 20 42  2  3
 20 43  1  0
 22 23  2  0
 22 24  1  0
 23 26  1  0
 24 28  2  0
 25 27  2  0
 25 30  1  0
 26 29  2  0
 27 31  1  0
 28 29  1  0
 29 32  1  0
 30 33  2  0
 31 34  2  0
 32 44  1  0
 32 45  1  0
 32 46  1  0
 33 34  1  0
M  END
$$$$

     RDKit          3D

 46 52  0  0  0  0  0  0  0  0999 V2000
   22.0443   16.2095   40.1519 C   0  0  0  0  0  0  0  0  0  0  0  0
   22.3190   17.0398   41.2574 C   0  0  0  0  0  0  0  0  0  0  0  0
   22.3842   21.6358   30.9765 C   0  0  0  0  0  0  0  0  0  0  0  0
   22.5653   24.0679   33.6975 C   0  0  0  0  0  0  0  0  0  0  0  0
   22.8975   16.2934   39.0182 C   0  0  0  0  0  0  0  0  0  0  0  0
   22.7216   19.5290   29.2343 C   0  0  0  0  0  0  0  0  0  0  0  0
   22.9063   22.9437   32.8656 C   0  0  0  0  0  0  0  0  0  0  0  0
   23.4456   17.8558   41.2603 C   0  0  0  0  0  0  0  0  0  0  0  0
   23.2387   24.2454   34.9220 C   0  0  0  0  0  0  0  0  0  0  0  0
   23.5502   20.8064   31.1779 C   0  0  0  0  0  0  0  0  0  0  0  0
   23.7114   19.7305   30.2480 C   0  0  0  0  0  0  0  0  0  0  0  0
   23.9740   17.1647   38.9981 C   0  0  0  0  0  0  0  0  0  0  0  0
   24.0327   22.1523   33.1690 C   0  0  2  0  0  0  0  0  0  0  0  0
   24.2433   17.9197   40.1399 C   0  0  0  0  0  0  0  0  0  0  0  0
   24.2516   23.3376   35.2608 C   0  0  0  0  0  0  0  0  0  0  0  0
   24.4957   21.1484   32.2151 C   0  0  0  0  0  0  0  0  0  0  0  0
   24.6490   22.3125   34.4186 C   0  0  0  0  0  0  0  0  0  0  0  0
   24.8394   17.2939   37.7785 C   0  0  0  0  0  0  0  0  0  0  0  0
   25.3426   16.4765   32.5620 C   0  0  0  0  0  0  0  0  0  0  0  0
   25.2565   19.2141   36.1579 C   0  0  2  0  0  0  0  0  0  0  0  0
   25.4669   17.8643   32.5266 C   0  0  0  0  0  0  0  0  0  0  0  0
   25.9702   15.6740   31.6402 C   0  0  0  0  0  0  0  0  0  0  0  0
   26.3175   18.4543   31.5762 C   0  0  0  0  0  0  0  0  0  0  0  0
   26.4774   19.0836   37.2583 C   0  0  0  0  0  0  0  0  0  0  0  0
   26.5241   19.8818   31.5249 C   0  0  0  0  0  0  0  0  0  0  0  0
   26.6471   19.9250   36.0346 C   0  0  0  0  0  0  0  0  0  0  0  0
   26.7816   16.2475   30.6856 C   0  0  0  0  0  0  0  0  0  0  0  0
   27.0168   17.6483   30.6643 C   0  0  0  0  0  0  0  0  0  0  0  0
   27.4783   20.4217   30.6421 C   0  0  0  0  0  0  0  0  0  0  0  0
   27.9794   18.1845   29.7743 C   0  0  0  0  0  0  0  0  0  0  0  0
   28.2363   19.5585   29.7741 C   0  0  0  0  0  0  0  0  0  0  0  0
   29.3487   19.9997   28.8945 C   0  0  0  0  0  0  0  0  0  0  0  0
   30.9503   19.9097   27.3684 C   0  0  0  0  0  0  0  0  0  0  0  0
   30.8296   21.2772   27.8038 C   0  0  0  0  0  0  0  0  0  0  0  0
   25.0433   18.5775   37.4031 O   0  0  0  0  0  0  0  0  0  0  0  0
   25.0202   20.4544   35.9925 O   0  0  0  0  0  0  0  0  0  0  0  0
   25.5083   21.4133   34.9205 O   0  0  0  0  0  0  0  0  0  0  0  0
   21.5117   17.1592   42.7049 N   0  0  0  0  0  0  0  0  0  0  0  0
   21.5177   21.4051   29.9389 N   0  0  0  0  0  0  0  0  0  0  0  0
   21.7249   20.4289   29.0612 N   0  0  0  0  0  0  0  0  0  0  0  0
   22.1243   22.6782   31.8101 N   0  0  0  0  0  0  0  0  0  0  0  0
   25.7793   20.6895   32.3627 N   0  0  0  0  0  0  0  0  0  0  0  0
   29.7680   21.2639   28.7271 N   0  0  0  0  0  0  0  0  0  0  0  0
   30.0674   19.1788   28.1021 N   0  0  0  0  0  0  0  0  0  0  0  0
   23.9263   19.3369   36.3181 S   0  0  0  0  0  0  0  0  0  0  0  0
   20.4032   17.6206   43.0766 F   0  0  0  0  0  0  0  0  0  0  0  0
  1  2  2  0
  1  5  1  0
  2  8  1  0
  2 38  1  0
  3 10  2  0
  3 39  1  0
  3 41  1  0
  4  7  1  0
  4  9  2  0
  5 12  2  0
  6 11  2  0
  6 40  1  0
  7 13  1  0
  7 41  2  0
  8 14  2  0
  9 15  1  0
 10 11  1  0
 10 16  1  0
 12 14  1  0
 12 18  1  0
 13 16  1  0
 13 17  1  1
 15 17  2  0
 16 42  2  3
 17 37  1  0
 18 35  1  0
 19 21  2  0
 19 22  1  0
 20 26  1  0
 20 35  1  0
 20 36  1  0
 20 45  1  6
 21 23  1  0
 22 27  2  0
 23 25  1  0
 23 28  2  0
 24 26  1  0
 25 29  2  0
 25 42  1  0
 27 28  1  0
 28 30  1  0
 29 31  1  0
 30 31  1  0
 31 32  2  3
 32 43  1  0
 32 44  1  0
 33 34  1  0
 33 44  1  0
 34 43  1  0
 36 37  1  0
 38 46  1  0
 39 40  2  0
M  END
$$$$

     RDKit          3D

 20 21  0  0  0  0  0  0  0  0999 V2000
   21.6932   19.3122   29.9475 C   0  0  0  0  0  0  0  0  0  0  0  0
   23.1345   19.2229   36.3752 C   0  0  0  0  0  0  0  0  0  0  0  0
   23.1436   20.2102   34.1732 C   0  0  0  0  0  0  0  0  0  0  0  0
   23.6140   19.2534   35.0598 C   0  0  0  0  0  0  0  0  0  0  0  0
   23.6137   20.2597   32.9152 C   0  0  0  0  0  0  0  0  0  0  0  0
   23.7363   18.4492   37.3436 C   0  0  0  0  0  0  0  0  0  0  0  0
   23.9979   20.1317   30.1215 C   0  0  0  0  0  0  0  0  0  0  0  0
   24.6324   18.3657   34.6568 C   0  0  0  0  0  0  0  0  0  0  0  0
   24.5498   19.3682   32.4274 C   0  0  0  0  0  0  0  0  0  0  0  0
   24.8760   17.7157   37.0078 C   0  0  1  0  0  0  0  0  0  0  0  0
   25.0220   18.3572   33.2848 C   0  0  0  0  0  0  0  0  0  0  0  0
   25.0720   19.4785   31.0419 C   0  0  0  0  0  0  0  0  0  0  0  0
   25.2894   17.5802   35.6750 C   0  0  0  0  0  0  0  0  0  0  0  0
   25.8902   17.3481   38.1347 C   0  0  0  0  0  0  0  0  0  0  0  0
   26.7904   18.6077   38.2966 C   0  0  0  0  0  0  0  0  0  0  0  0
   26.7375   19.6084   37.1792 C   0  0  0  0  0  0  0  0  0  0  0  0
   28.2723   18.3582   38.4161 C   0  0  0  0  0  0  0  0  0  0  0  0
   20.9960   18.4360   29.2704 O   0  0  0  0  0  0  0  0  0  0  0  0
   21.1418   20.2027   30.6400 O   0  0  0  0  0  0  0  0  0  0  0  0
   23.0110   19.1310   29.8561 O   0  0  0  0  0  0  0  0  0  0  0  0
  1 18  2  0
  1 19  1  0
  1 20  1  0
  2  4  1  0
  2  6  2  0
  3  4  1  0
  3  5  2  0
  4  8  2  0
  5  9  1  0
  6 10  1  0
  7 12  1  0
  7 20  1  0
  8 11  1  0
  8 13  1  0
  9 11  2  0
  9 12  1  0
 10 13  1  0
 10 14  1  1
 14 15  1  0
 15 16  1  0
 15 17  1  0
M  END
$$$$

     RDKit          3D

 30 33  0  0  0  0  0  0  0  0999 V2000
   20.7178   16.0395   41.8770 C   0  0  0  0  0  0  0  0  0  0  0  0
   21.8708   15.8862   40.9133 C   0  0  0  0  0  0  0  0  0  0  0  0
   21.8407   19.5430   30.6785 C   0  0  0  0  0  0  0  0  0  0  0  0
   21.9885   20.6548   31.7110 C   0  0  1  0  0  0  0  0  0  0  0  0
   22.4087   20.1890   33.0223 C   0  0  0  0  0  0  0  0  0  0  0  0
   22.5768   22.0015   31.5223 C   0  0  0  0  0  0  0  0  0  0  0  0
   22.8015   18.3526   38.5512 C   0  0  0  0  0  0  0  0  0  0  0  0
   22.9724   17.2429   39.3268 C   0  0  0  0  0  0  0  0  0  0  0  0
   23.1704   21.2086   33.6034 C   0  0  2  0  0  0  0  0  0  0  0  0
   23.3390   19.6766   36.6285 C   0  0  0  0  0  0  0  0  0  0  0  0
   23.3559   22.2765   32.7611 C   0  0  0  0  0  0  0  0  0  0  0  0
   23.5559   18.4625   37.3982 C   0  0  0  0  0  0  0  0  0  0  0  0
   23.8234   16.2167   38.9917 C   0  0  0  0  0  0  0  0  0  0  0  0
   23.8880   21.0304   34.8623 C   0  0  0  0  0  0  0  0  0  0  0  0
   24.4549   17.4424   37.0268 C   0  0  0  0  0  0  0  0  0  0  0  0
   24.2921   19.3944   30.4370 C   0  0  0  0  0  0  0  0  0  0  0  0
   24.6002   16.3463   37.8556 C   0  0  0  0  0  0  0  0  0  0  0  0
   24.6059   18.6731   31.5778 C   0  0  0  0  0  0  0  0  0  0  0  0
   24.9483   17.9313   34.4069 C   0  0  0  0  0  0  0  0  0  0  0  0
   25.3659   17.5109   35.7962 C   0  0  0  0  0  0  0  0  0  0  0  0
   25.2749   20.1945   29.8285 C   0  0  0  0  0  0  0  0  0  0  0  0
   25.8472   18.8398   32.1885 C   0  0  0  0  0  0  0  0  0  0  0  0
   26.1662   18.0805   33.4649 C   0  0  0  0  0  0  0  0  0  0  0  0
   26.5108   20.3622   30.4567 C   0  0  0  0  0  0  0  0  0  0  0  0
   26.8057   19.6815   31.6378 C   0  0  0  0  0  0  0  0  0  0  0  0
   22.2344   17.1495   40.4686 O   0  0  0  0  0  0  0  0  0  0  0  0
   23.0202   19.3165   29.8891 O   0  0  0  0  0  0  0  0  0  0  0  0
   24.6005   21.8766   35.4291 O   0  0  0  0  0  0  0  0  0  0  0  0
   22.4989   20.5722   37.0055 N   0  0  0  0  0  0  0  0  0  0  0  0
   23.6552   19.8342   35.4247 N   0  0  0  0  0  0  0  0  0  0  0  0
  1  2  1  0
  2 26  1  0
  4  3  1  6
  3 27  1  0
  4  5  1  0
  4  6  1  0
  5  9  1  0
  6 11  1  0
  7  8  2  0
  7 12  1  0
  8 13  1  0
  8 26  1  0
  9 11  1  6
  9 14  1  0
 10 12  1  0
 10 29  2  0
 10 30  1  0
 12 15  2  0
 13 17  2  0
 14 28  2  0
 14 30  1  0
 15 17  1  0
 15 20  1  0
 16 18  2  0
 16 21  1  0
 16 27  1  0
 18 22  1  0
 19 20  1  0
 19 23  1  0
 21 24  2  0
 22 23  1  0
 22 25  2  0
 24 25  1  0
M  END
$$$$

     RDKit          3D

 27 29  0  0  0  0  0  0  0  0999 V2000
   21.4421   19.7503   30.5922 C   0  0  0  0  0  0  0  0  0  0  0  0
   21.7327   18.4977   30.0600 C   0  0  0  0  0  0  0  0  0  0  0  0
   21.9458   20.0491   36.7116 C   0  0  0  0  0  0  0  0  0  0  0  0
   22.1608   21.3613   36.3298 C   0  0  0  0  0  0  0  0  0  0  0  0
   22.1474   21.8817   31.7084 C   0  0  0  0  0  0  0  0  0  0  0  0
   22.4425   20.4883   31.2396 C   0  0  0  0  0  0  0  0  0  0  0  0
   22.9513   19.1373   36.6068 C   0  0  0  0  0  0  0  0  0  0  0  0
   23.0250   17.9499   30.1644 C   0  0  0  0  0  0  0  0  0  0  0  0
   23.1118   22.6192   32.5075 C   0  0  0  0  0  0  0  0  0  0  0  0
   23.3992   21.7463   35.8627 C   0  0  0  0  0  0  0  0  0  0  0  0
   23.7339   19.9132   31.4110 C   0  0  0  0  0  0  0  0  0  0  0  0
   24.0234   18.6316   30.8810 C   0  0  0  0  0  0  0  0  0  0  0  0
   24.2071   19.4966   36.1447 C   0  0  0  0  0  0  0  0  0  0  0  0
   24.4395   20.8190   35.7089 C   0  0  0  0  0  0  0  0  0  0  0  0
   24.7592   17.3546   33.6568 C   0  0  0  0  0  0  0  0  0  0  0  0
   25.2887   17.0329   32.1913 C   0  0  0  0  0  0  0  0  0  0  0  0
   25.2206   18.3610   35.9628 C   0  0  1  0  0  0  0  0  0  0  0  0
   25.5666   18.1890   34.4852 C   0  0  0  0  0  0  0  0  0  0  0  0
   26.3497   18.1413   38.2549 C   0  0  0  0  0  0  0  0  0  0  0  0
   26.4182   18.5498   36.8932 C   0  0  0  0  0  0  0  0  0  0  0  0
   27.4667   18.2801   39.0712 C   0  0  0  0  0  0  0  0  0  0  0  0
   27.6119   19.1036   36.4123 C   0  0  0  0  0  0  0  0  0  0  0  0
   28.6316   18.8864   38.5202 C   0  0  0  0  0  0  0  0  0  0  0  0
   21.0714   22.4189   31.3831 O   0  0  0  0  0  0  0  0  0  0  0  0
   24.4854   17.2815   36.5534 O   0  0  0  0  0  0  0  0  0  0  0  0
   25.2364   18.0144   31.1947 O   0  0  0  0  0  0  0  0  0  0  0  0
   28.6968   19.2659   37.2094 N   0  0  0  0  0  0  0  0  0  0  0  0
  1  2  2  0
  1  6  1  0
  2  8  1  0
  3  4  2  0
  3  7  1  0
  4 10  1  0
  5  6  1  0
  5  9  1  0
  5 24  2  0
  6 11  2  0
  7 13  2  0
  8 12  2  0
 10 14  2  0
 11 12  1  0
 12 26  1  0
 13 14  1  0
 13 17  1  0
 15 16  1  0
 15 18  2  3
 16 26  1  0
 17 18  1  0
 17 20  1  0
 17 25  1  1
 19 20  2  0
 19 21  1  0
 20 22  1  0
 21 23  2  0
 22 27  2  0
 23 27  1  0
M  END
$$$$

     RDKit          3D

 44 49  0  0  0  0  0  0  0  0999 V2000
   20.2496   25.1362   33.5903 C   0  0  0  0  0  0  0  0  0  0  0  0
   20.9888   15.9188   41.4420 C   0  0  0  0  0  0  0  0  0  0  0  0
   21.4327   15.8682   40.1271 C   0  0  0  0  0  0  0  0  0  0  0  0
   21.6987   16.6630   42.4492 C   0  0  0  0  0  0  0  0  0  0  0  0
   21.6490   24.8167   33.5827 C   0  0  1  0  0  0  0  0  0  0  0  0
   21.8272   18.8581   36.9479 C   0  0  0  0  0  0  0  0  0  0  0  0
   22.0488   18.9622   32.6524 C   0  0  0  0  0  0  0  0  0  0  0  0
   22.2479   23.2238   31.8364 C   0  0  0  0  0  0  0  0  0  0  0  0
   22.2419   23.5718   33.1668 C   0  0  0  0  0  0  0  0  0  0  0  0
   22.3980   25.9754   33.8140 C   0  0  0  0  0  0  0  0  0  0  0  0
   22.5219   16.5918   39.6955 C   0  0  0  0  0  0  0  0  0  0  0  0
   22.8180   17.3491   41.9491 C   0  0  0  0  0  0  0  0  0  0  0  0
   22.8713   22.0770   31.4165 C   0  0  0  0  0  0  0  0  0  0  0  0
   22.9148   22.7755   34.1016 C   0  0  0  0  0  0  0  0  0  0  0  0
   23.2553   17.3190   40.6289 C   0  0  0  0  0  0  0  0  0  0  0  0
   23.3205   18.8158   31.9218 C   0  0  2  0  0  0  0  0  0  0  0  0
   23.2838   18.6763   37.1786 C   0  0  0  0  0  0  0  0  0  0  0  0
   23.5267   21.2496   32.3302 C   0  0  1  0  0  0  0  0  0  0  0  0
   23.5065   21.5959   33.6858 C   0  0  0  0  0  0  0  0  0  0  0  0
   23.7318   17.5235   37.7957 C   0  0  0  0  0  0  0  0  0  0  0  0
   23.7118   20.8642   35.8911 C   0  0  0  0  0  0  0  0  0  0  0  0
   24.0647   17.5499   32.2117 C   0  0  0  0  0  0  0  0  0  0  0  0
   24.1905   19.6502   36.6640 C   0  0  0  0  0  0  0  0  0  0  0  0
   25.0897   17.3765   37.9903 C   0  0  0  0  0  0  0  0  0  0  0  0
   25.3152   17.4622   31.4405 C   0  0  0  0  0  0  0  0  0  0  0  0
   25.3780   19.9525   31.3507 C   0  0  0  0  0  0  0  0  0  0  0  0
   25.5408   19.4775   36.8683 C   0  0  0  0  0  0  0  0  0  0  0  0
   25.8379   16.2104   31.0872 C   0  0  0  0  0  0  0  0  0  0  0  0
   25.9559   18.6385   31.0940 C   0  0  0  0  0  0  0  0  0  0  0  0
   25.9867   18.3295   37.5239 C   0  0  0  0  0  0  0  0  0  0  0  0
   27.0520   16.1775   30.4039 C   0  0  0  0  0  0  0  0  0  0  0  0
   27.1798   18.5749   30.4083 C   0  0  0  0  0  0  0  0  0  0  0  0
   27.7229   17.3475   30.0859 C   0  0  0  0  0  0  0  0  0  0  0  0
   28.2057   18.8860   37.0022 C   0  0  0  0  0  0  0  0  0  0  0  0
   28.2119   18.9392   38.4454 C   0  0  0  0  0  0  0  0  0  0  0  0
   20.2553   26.5098   33.8537 O   0  0  0  0  0  0  0  0  0  0  0  0
   22.8445   16.5950   38.3437 O   0  0  0  0  0  0  0  0  0  0  0  0
   22.9210   21.6316   36.3964 O   0  0  0  0  0  0  0  0  0  0  0  0
   25.9862   20.9459   31.0663 O   0  0  0  0  0  0  0  0  0  0  0  0
   27.2857   18.1365   37.8021 O   0  0  0  0  0  0  0  0  0  0  0  0
   21.4843   26.9868   34.0670 N   0  0  0  0  0  0  0  0  0  0  0  0
   24.1194   20.0171   31.8975 N   0  0  0  0  0  0  0  0  0  0  0  0
   24.0123   20.7304   34.5906 N   0  0  0  0  0  0  0  0  0  0  0  0
   27.5498   14.9913   30.0071 F   0  0  0  0  0  0  0  0  0  0  0  0
  1  5  1  0
  1 36  1  0
  2  3  1  0
  2  4  1  0
  3 11  2  0
  4 12  1  0
  5  9  1  6
  5 10  1  0
  6 17  1  0
 16  7  1  1
  8  9  1  0
  8 13  2  0
  9 14  2  0
 10 41  1  0
 11 15  1  0
 11 37  1  0
 12 15  2  0
 13 18  1  0
 14 19  1  0
 16 22  1  0
 16 42  1  0
 17 20  2  0
 17 23  1  0
 18 19  1  0
 18 42  1  1
 19 43  2  3
 20 24  1  0
 20 37  1  0
 21 23  1  0
 21 38  2  0
 21 43  1  0
 22 25  1  0
 23 27  2  0
 24 30  2  0
 25 28  1  0
 25 29  2  0
 26 29  1  0
 26 39  2  0
 26 42  1  0
 27 30  1  0
 28 31  2  0
 29 32  1  0
 30 40  1  0
 31 33  1  0
 31 44  1  0
 32 33  2  0
 34 35  1  0
 35 40  1  0
 36 41  1  0
M  END
$$$$

     RDKit          3D

 39 43  0  0  0  0  0  0  0  0999 V2000
   21.4036   15.7570   40.6054 C   0  0  0  0  0  0  0  0  0  0  0  0
   21.3963   16.2506   41.9160 C   0  0  0  0  0  0  0  0  0  0  0  0
   21.2954   17.4362   28.3638 C   0  0  0  0  0  0  0  0  0  0  0  0
   21.5815   18.5745   30.4804 C   0  0  0  0  0  0  0  0  0  0  0  0
   22.1705   17.3241   42.1964 C   0  0  0  0  0  0  0  0  0  0  0  0
   22.0495   18.4469   27.7283 C   0  0  0  0  0  0  0  0  0  0  0  0
   22.2227   16.2946   39.6093 C   0  0  0  0  0  0  0  0  0  0  0  0
   22.4315   21.2558   31.5770 C   0  0  0  0  0  0  0  0  0  0  0  0
   22.7034   19.3959   28.5376 C   0  0  0  0  0  0  0  0  0  0  0  0
   22.4766   19.4491   29.8939 C   0  0  0  0  0  0  0  0  0  0  0  0
   22.8238   21.0017   36.1855 C   0  0  0  0  0  0  0  0  0  0  0  0
   23.0471   17.3590   39.9461 C   0  0  0  0  0  0  0  0  0  0  0  0
   22.9850   17.9061   41.2310 C   0  0  0  0  0  0  0  0  0  0  0  0
   23.0516   18.9892   34.6668 C   0  0  0  0  0  0  0  0  0  0  0  0
   23.4413   18.5939   37.8832 C   0  0  0  0  0  0  0  0  0  0  0  0
   23.3114   21.6334   32.5331 C   0  0  0  0  0  0  0  0  0  0  0  0
   23.7201   19.9007   35.7004 C   0  0  2  0  0  0  0  0  0  0  0  0
   23.9553   22.5463   34.6390 C   0  0  0  0  0  0  0  0  0  0  0  0
   23.9611   17.9050   38.9399 C   0  0  0  0  0  0  0  0  0  0  0  0
   24.0954   18.4131   33.6400 C   0  0  0  0  0  0  0  0  0  0  0  0
   24.2697   19.1421   36.9006 C   0  0  0  0  0  0  0  0  0  0  0  0
   24.4386   20.4099   31.0648 C   0  0  0  0  0  0  0  0  0  0  0  0
   24.9067   17.5118   31.4208 C   0  0  0  0  0  0  0  0  0  0  0  0
   25.2329   17.3073   32.9276 C   0  0  0  0  0  0  0  0  0  0  0  0
   25.3393   17.7253   39.0788 C   0  0  0  0  0  0  0  0  0  0  0  0
   25.6665   18.9645   37.0331 C   0  0  0  0  0  0  0  0  0  0  0  0
   25.6977   19.7876   30.6053 C   0  0  0  0  0  0  0  0  0  0  0  0
   25.9456   18.3976   30.7610 C   0  0  0  0  0  0  0  0  0  0  0  0
   26.1892   18.2550   38.1062 C   0  0  0  0  0  0  0  0  0  0  0  0
   26.6639   20.5834   30.0157 C   0  0  0  0  0  0  0  0  0  0  0  0
   27.1524   17.8523   30.2670 C   0  0  0  0  0  0  0  0  0  0  0  0
   27.8435   20.0453   29.5561 C   0  0  0  0  0  0  0  0  0  0  0  0
   28.0701   18.6767   29.6614 C   0  0  0  0  0  0  0  0  0  0  0  0
   21.8445   20.8090   36.9104 O   0  0  0  0  0  0  0  0  0  0  0  0
   20.8809   17.6107   29.6603 N   0  0  0  0  0  0  0  0  0  0  0  0
   23.1594   20.3585   30.6858 N   0  0  0  0  0  0  0  0  0  0  0  0
   23.0538   22.3691   33.6168 N   0  0  0  0  0  0  0  0  0  0  0  0
   23.2428   22.2934   35.9199 N   0  0  0  0  0  0  0  0  0  0  0  0
   24.5000   21.0963   32.2237 N   0  0  0  0  0  0  0  0  0  0  0  0
  1  2  1  0
  1  7  1  0
  2  5  2  0
  3  6  1  0
  3 35  1  0
  4 10  2  0
  5 13  1  0
  6  9  2  3
  7 12  2  0
  8 16  1  0
  8 36  1  0
  9 10  1  0
 10 36  1  0
 11 17  1  0
 11 34  2  0
 11 38  1  0
 12 13  1  0
 12 19  1  0
 14 17  1  0
 14 20  1  0
 15 19  2  0
 15 21  1  0
 16 37  2  3
 16 39  1  0
 17 21  1  1
 18 37  1  0
 18 38  1  0
 19 25  1  0
 20 24  1  0
 21 26  1  0
 22 27  1  0
 22 36  1  0
 22 39  2  0
 23 24  1  0
 23 28  1  0
 25 29  1  0
 26 29  2  0
 27 28  2  0
 27 30  1  0
 28 31  1  0
 30 32  2  0
 31 33  2  0
 32 33  1  0
M  END
$$$$

     RDKit          3D

 22 25  0  0  0  0  0  0  0  0999 V2000
   22.3655   19.6464   37.1840 C   0  0  0  0  0  0  0  0  0  0  0  0
   22.2817   20.9869   36.8328 C   0  0  0  0  0  0  0  0  0  0  0  0
   23.1259   18.7678   36.4017 C   0  0  0  0  0  0  0  0  0  0  0  0
   22.9672   21.4603   35.7255 C   0  0  0  0  0  0  0  0  0  0  0  0
   23.7959   19.2407   35.2837 C   0  0  0  0  0  0  0  0  0  0  0  0
   23.7271   20.5979   34.9452 C   0  0  0  0  0  0  0  0  0  0  0  0
   24.4112   21.1446   33.7957 C   0  0  0  0  0  0  0  0  0  0  0  0
   24.6895   18.3377   34.4833 C   0  0  1  0  0  0  0  0  0  0  0  0
   24.6333   18.7214   32.9941 C   0  0  1  0  0  0  0  0  0  0  0  0
   24.9508   20.2050   32.7785 C   0  0  2  0  0  0  0  0  0  0  0  0
   25.3374   16.4031   32.1997 C   0  0  0  0  0  0  0  0  0  0  0  0
   25.4874   17.7955   32.1508 C   0  0  0  0  0  0  0  0  0  0  0  0
   26.0778   15.5634   31.3626 C   0  0  0  0  0  0  0  0  0  0  0  0
   26.1309   18.4430   34.9885 C   0  0  0  0  0  0  0  0  0  0  0  0
   26.4400   18.3450   31.2097 C   0  0  0  0  0  0  0  0  0  0  0  0
   26.2625   20.5882   32.2033 C   0  0  0  0  0  0  0  0  0  0  0  0
   26.6560   19.8155   31.0437 C   0  0  0  0  0  0  0  0  0  0  0  0
   26.9742   16.0956   30.4290 C   0  0  0  0  0  0  0  0  0  0  0  0
   27.1419   17.4885   30.3406 C   0  0  0  0  0  0  0  0  0  0  0  0
   21.6148   21.8418   37.6491 O   0  0  0  0  0  0  0  0  0  0  0  0
   27.7049   15.3298   29.5979 O   0  0  0  0  0  0  0  0  0  0  0  0
   21.7639   19.2203   38.2724 F   0  0  0  0  0  0  0  0  0  0  0  0
  1  2  2  0
  1  3  1  0
  1 22  1  0
  2  4  1  0
  2 20  1  0
  3  5  2  0
  4  6  2  0
  5  6  1  0
  5  8  1  0
  6  7  1  0
 10  7  1  1
  8  9  1  0
  8 14  1  1
  9 10  1  0
  9 12  1  6
 10 16  1  0
 11 12  1  0
 11 13  2  0
 12 15  2  0
 13 18  1  0
 15 17  1  0
 15 19  1  0
 16 17  1  0
 18 19  2  0
 18 21  1  0
M  END
$$$$

     RDKit          3D

 24 27  0  0  0  0  0  0  0  0999 V2000
   21.3910   18.6663   30.6497 C   0  0  0  0  0  0  0  0  0  0  0  0
   21.9040   18.6232   29.3591 C   0  0  0  0  0  0  0  0  0  0  0  0
   22.1996   19.1735   31.6811 C   0  0  0  0  0  0  0  0  0  0  0  0
   22.8662   21.4319   35.8142 C   0  0  0  0  0  0  0  0  0  0  0  0
   22.9572   22.5241   33.5059 C   0  0  0  0  0  0  0  0  0  0  0  0
   23.1218   17.2579   39.3819 C   0  0  0  0  0  0  0  0  0  0  0  0
   22.9752   18.2506   38.3997 C   0  0  0  0  0  0  0  0  0  0  0  0
   23.1666   19.0599   29.0583 C   0  0  0  0  0  0  0  0  0  0  0  0
   23.2777   21.3411   34.3969 C   0  0  0  0  0  0  0  0  0  0  0  0
   23.5476   19.6108   31.4030 C   0  0  0  0  0  0  0  0  0  0  0  0
   23.9109   18.2704   37.2957 C   0  0  0  0  0  0  0  0  0  0  0  0
   23.7575   19.2789   36.2340 C   0  0  0  0  0  0  0  0  0  0  0  0
   24.1568   16.3255   39.2545 C   0  0  0  0  0  0  0  0  0  0  0  0
   24.0065   19.5402   30.0540 C   0  0  0  0  0  0  0  0  0  0  0  0
   23.9705   20.1731   33.9098 C   0  0  0  0  0  0  0  0  0  0  0  0
   24.2233   19.0738   34.8758 C   0  0  0  0  0  0  0  0  0  0  0  0
   24.4343   20.0836   32.4604 C   0  0  0  0  0  0  0  0  0  0  0  0
   24.9317   17.3236   37.2246 C   0  0  0  0  0  0  0  0  0  0  0  0
   25.0476   16.3521   38.1799 C   0  0  0  0  0  0  0  0  0  0  0  0
   25.3415   19.9561   29.7599 C   0  0  0  0  0  0  0  0  0  0  0  0
   25.7442   20.4621   32.1127 C   0  0  0  0  0  0  0  0  0  0  0  0
   26.1952   20.4192   30.7805 C   0  0  0  0  0  0  0  0  0  0  0  0
   22.2720   22.4585   36.3139 O   0  0  0  0  0  0  0  0  0  0  0  0
   23.1226   20.4167   36.6153 O   0  0  0  0  0  0  0  0  0  0  0  0
  1  2  1  0
  1  3  2  0
  2  8  2  0
  3 10  1  0
  4  9  1  0
  4 23  2  0
  4 24  1  0
  5  9  1  0
  6  7  2  0
  6 13  1  0
  7 11  1  0
  8 14  1  0
  9 15  2  0
 10 14  1  0
 10 17  1  0
 11 12  1  0
 11 18  2  0
 12 16  2  0
 12 24  1  0
 13 19  2  0
 14 20  2  0
 15 16  1  0
 15 17  1  0
 17 21  2  0
 18 19  1  0
 20 22  1  0
 21 22  1  0
M  END
$$$$

     RDKit          3D

 37 41  0  0  0  0  0  0  0  0999 V2000
   21.5978   15.8396   41.2677 C   0  0  0  0  0  0  0  0  0  0  0  0
   21.6666   20.4965   29.9609 C   0  0  0  0  0  0  0  0  0  0  0  0
   22.0402   16.2065   39.9912 C   0  0  0  0  0  0  0  0  0  0  0  0
   22.1418   16.4000   42.5073 C   0  0  0  0  0  0  0  0  0  0  0  0
   22.1210   21.0850   31.2913 C   0  0  0  0  0  0  0  0  0  0  0  0
   22.4487   20.2920   32.3953 C   0  0  0  0  0  0  0  0  0  0  0  0
   22.2569   22.4741   31.4185 C   0  0  0  0  0  0  0  0  0  0  0  0
   22.7053   18.6394   37.9497 C   0  0  0  0  0  0  0  0  0  0  0  0
   22.7014   19.7109   29.1903 C   0  0  0  0  0  0  0  0  0  0  0  0
   22.6933   23.0756   32.5865 C   0  0  0  0  0  0  0  0  0  0  0  0
   22.9171   20.8680   33.5855 C   0  0  0  0  0  0  0  0  0  0  0  0
   23.0576   17.1777   39.8518 C   0  0  0  0  0  0  0  0  0  0  0  0
   23.1335   17.3736   42.3287 C   0  0  0  0  0  0  0  0  0  0  0  0
   22.9836   18.3923   29.8748 C   0  0  0  0  0  0  0  0  0  0  0  0
   23.1038   19.1002   36.6724 C   0  0  0  0  0  0  0  0  0  0  0  0
   23.0405   22.2753   33.6734 C   0  0  0  0  0  0  0  0  0  0  0  0
   23.2101   20.0479   34.7095 C   0  0  0  0  0  0  0  0  0  0  0  0
   23.6116   17.7577   40.9876 C   0  0  0  0  0  0  0  0  0  0  0  0
   24.2100   18.5480   36.0397 C   0  0  0  0  0  0  0  0  0  0  0  0
   23.9735   20.5015   29.0527 C   0  0  0  0  0  0  0  0  0  0  0  0
   24.2740   19.1578   34.7732 C   0  0  0  0  0  0  0  0  0  0  0  0
   24.5996   17.1428   37.9397 C   0  0  0  0  0  0  0  0  0  0  0  0
   25.1751   17.6010   33.0263 C   0  0  0  0  0  0  0  0  0  0  0  0
   24.9907   17.5751   36.6543 C   0  0  0  0  0  0  0  0  0  0  0  0
   25.1800   18.8219   33.6701 C   0  0  0  0  0  0  0  0  0  0  0  0
   25.9584   17.3304   31.8756 C   0  0  0  0  0  0  0  0  0  0  0  0
   26.1949   16.0747   31.2082 C   0  0  0  0  0  0  0  0  0  0  0  0
   26.0128   19.8870   33.3682 C   0  0  0  0  0  0  0  0  0  0  0  0
   26.6731   18.3219   31.1318 C   0  0  0  0  0  0  0  0  0  0  0  0
   26.6532   19.7128   31.4663 C   0  0  0  0  0  0  0  0  0  0  0  0
   27.1113   16.3474   30.1378 C   0  0  0  0  0  0  0  0  0  0  0  0
   28.2842   18.3535   29.1390 C   0  0  0  0  0  0  0  0  0  0  0  0
   20.4858   20.3742   29.6587 O   0  0  0  0  0  0  0  0  0  0  0  0
   22.5275   20.0268   35.8704 N   0  0  0  0  0  0  0  0  0  0  0  0
   23.4559   17.6354   38.5630 N   0  0  0  0  0  0  0  0  0  0  0  0
   27.3723   17.6966   30.1149 N   0  0  0  0  0  0  0  0  0  0  0  0
   25.3573   16.2278   38.4913 F   0  0  0  0  0  0  0  0  0  0  0  0
  1  3  2  0
  1  4  1  0
  2  5  1  0
  2  9  1  0
  2 33  2  0
  3 12  1  0
  4 13  1  0
  5  6  2  0
  5  7  1  0
  6 11  1  0
  7 10  2  0
  8 15  1  0
  8 35  1  0
  9 14  1  0
  9 20  1  0
 10 16  1  0
 11 16  2  0
 11 17  1  0
 12 18  2  0
 12 35  1  0
 13 18  1  0
 15 19  2  0
 15 34  1  0
 17 21  2  0
 17 34  1  0
 19 21  1  0
 19 24  1  0
 21 25  1  0
 22 24  2  0
 22 35  1  0
 22 37  1  0
 23 25  2  3
 23 26  1  0
 25 28  1  0
 26 27  1  0
 26 29  2  0
 27 31  1  0
 29 30  1  0
 29 36  1  0
 31 36  1  0
 32 36  1  0
M  END
$$$$

     RDKit          3D

 26 29  0  0  0  0  0  0  0  0999 V2000
   21.8277   16.1143   40.0619 C   0  0  0  0  0  0  0  0  0  0  0  0
   22.1464   16.6901   41.2736 C   0  0  0  0  0  0  0  0  0  0  0  0
   22.3749   18.2982   29.1245 C   0  0  0  0  0  0  0  0  0  0  0  0
   22.3222   19.3905   28.1949 C   0  0  0  0  0  0  0  0  0  0  0  0
   22.6178   16.2705   38.9354 C   0  0  0  0  0  0  0  0  0  0  0  0
   23.1813   20.4747   28.4270 C   0  0  0  0  0  0  0  0  0  0  0  0
   23.2438   17.5225   41.3141 C   0  0  0  0  0  0  0  0  0  0  0  0
   23.3403   18.2567   30.1532 C   0  0  0  0  0  0  0  0  0  0  0  0
   23.7327   17.0671   38.9853 C   0  0  0  0  0  0  0  0  0  0  0  0
   23.8565   19.2547   34.8461 C   0  0  0  0  0  0  0  0  0  0  0  0
   24.0442   17.7210   40.1942 C   0  0  0  0  0  0  0  0  0  0  0  0
   24.1193   18.1953   36.7441 C   0  0  0  0  0  0  0  0  0  0  0  0
   24.1775   19.3415   30.3237 C   0  0  0  0  0  0  0  0  0  0  0  0
   24.0597   19.5600   33.4554 C   0  0  0  0  0  0  0  0  0  0  0  0
   24.0909   20.4618   29.4839 C   0  0  0  0  0  0  0  0  0  0  0  0
   24.4612   18.1612   35.4148 C   0  0  0  0  0  0  0  0  0  0  0  0
   24.6477   17.2104   37.7949 C   0  0  1  0  0  0  0  0  0  0  0  0
   25.2483   17.2951   34.6546 C   0  0  0  0  0  0  0  0  0  0  0  0
   25.2811   19.2419   31.3679 C   0  0  2  0  0  0  0  0  0  0  0  0
   25.4663   17.6593   33.2860 C   0  0  0  0  0  0  0  0  0  0  0  0
   26.0681   17.5518   38.2194 C   0  0  0  0  0  0  0  0  0  0  0  0
   26.3592   18.3630   30.8551 C   0  0  0  0  0  0  0  0  0  0  0  0
   23.3889   20.4870   32.9617 O   0  0  0  0  0  0  0  0  0  0  0  0
   23.0936   19.9153   35.7559 N   0  0  0  0  0  0  0  0  0  0  0  0
   23.2810   19.2165   36.9437 N   0  0  0  0  0  0  0  0  0  0  0  0
   24.8898   18.7756   32.7158 N   0  0  0  0  0  0  0  0  0  0  0  0
  1  2  1  0
  1  5  1  0
  2  7  2  0
  3  4  2  0
  3  8  1  0
  4  6  1  0
  5  9  2  0
  6 15  2  0
  7 11  1  0
  8 13  2  0
  9 11  1  0
  9 17  1  0
 10 14  1  0
 10 16  1  0
 10 24  1  0
 12 16  2  0
 12 17  1  0
 12 25  1  0
 13 15  1  0
 13 19  1  0
 14 23  2  0
 14 26  1  0
 16 18  1  0
 17 21  1  1
 18 20  2  0
 19 22  1  6
 19 26  1  0
 20 26  1  0
 24 25  1  0
M  END
$$$$

     RDKit          3D

 20 22  0  0  0  0  0  0  0  0999 V2000
   23.4022   20.7324   30.1629 C   0  0  0  0  0  0  0  0  0  0  0  0
   23.2663   21.1514   31.4627 C   0  0  0  0  0  0  0  0  0  0  0  0
   23.5586   20.1692   36.1774 C   0  0  0  0  0  0  0  0  0  0  0  0
   23.6602   20.3486   32.4834 C   0  0  0  0  0  0  0  0  0  0  0  0
   23.4839   20.7131   33.8112 C   0  0  0  0  0  0  0  0  0  0  0  0
   23.9197   19.4773   29.8779 C   0  0  0  0  0  0  0  0  0  0  0  0
   23.8301   19.8660   34.8493 C   0  0  0  0  0  0  0  0  0  0  0  0
   24.2049   19.1034   32.2095 C   0  0  0  0  0  0  0  0  0  0  0  0
   23.9804   19.2562   37.1700 C   0  0  0  0  0  0  0  0  0  0  0  0
   24.3528   18.6636   30.8942 C   0  0  0  0  0  0  0  0  0  0  0  0
   24.4413   18.6536   34.5104 C   0  0  0  0  0  0  0  0  0  0  0  0
   24.6888   18.0840   36.8238 C   0  0  0  0  0  0  0  0  0  0  0  0
   24.5736   18.2430   33.2024 C   0  0  0  0  0  0  0  0  0  0  0  0
   24.9460   17.8136   35.4977 C   0  0  0  0  0  0  0  0  0  0  0  0
   25.2976   17.1112   37.7925 C   0  0  0  0  0  0  0  0  0  0  0  0
   22.8981   21.8180   34.0194 O   0  0  0  0  0  0  0  0  0  0  0  0
   24.3769   16.8453   38.9904 O   0  0  0  0  0  0  0  0  0  0  0  0
   24.8938   17.1070   32.8443 O   0  0  0  0  0  0  0  0  0  0  0  0
   25.1527   15.8375   37.2882 O   0  0  0  0  0  0  0  0  0  0  0  0
   26.4502   17.4909   38.2766 O   0  0  0  0  0  0  0  0  0  0  0  0
  1  2  2  0
  1  6  1  0
  2  4  1  0
  3  7  2  0
  3  9  1  0
  4  5  1  0
  4  8  2  0
  5  7  1  0
  5 16  2  0
  6 10  2  0
  7 11  1  0
  8 10  1  0
  8 13  1  0
  9 12  2  0
 11 13  1  0
 11 14  2  0
 12 14  1  0
 12 15  1  0
 13 18  2  0
 15 17  1  0
 15 19  1  0
 15 20  1  0
M  END
$$$$

     RDKit          3D

 35 39  0  0  0  0  0  0  0  0999 V2000
   20.9716   17.5928   28.8129 C   0  0  0  0  0  0  0  0  0  0  0  0
   21.9571   16.4923   40.3857 C   0  0  0  0  0  0  0  0  0  0  0  0
   22.0015   20.4099   29.0141 C   0  0  0  0  0  0  0  0  0  0  0  0
   22.1068   21.7373   29.3769 C   0  0  0  0  0  0  0  0  0  0  0  0
   22.2273   17.9349   29.5480 C   0  0  0  0  0  0  0  0  0  0  0  0
   22.2334   19.4226   29.9690 C   0  0  0  0  0  0  0  0  0  0  0  0
   22.4312   22.1414   30.6680 C   0  0  0  0  0  0  0  0  0  0  0  0
   22.5155   19.7645   31.3240 C   0  0  0  0  0  0  0  0  0  0  0  0
   22.6614   21.1471   31.6439 C   0  0  0  0  0  0  0  0  0  0  0  0
   22.7092   17.3199   41.1662 C   0  0  0  0  0  0  0  0  0  0  0  0
   22.8008   18.8352   32.3377 C   0  0  0  0  0  0  0  0  0  0  0  0
   23.0500   21.5206   32.9435 C   0  0  0  0  0  0  0  0  0  0  0  0
   23.2275   19.2899   33.5788 C   0  0  0  0  0  0  0  0  0  0  0  0
   23.5250   16.5384   38.6757 C   0  0  0  0  0  0  0  0  0  0  0  0
   23.9201   17.8038   40.6703 C   0  0  0  0  0  0  0  0  0  0  0  0
   24.3341   17.4367   39.3987 C   0  0  0  0  0  0  0  0  0  0  0  0
   24.6973   18.2981   36.6150 C   0  0  0  0  0  0  0  0  0  0  0  0
   24.8814   18.5823   35.2602 C   0  0  0  0  0  0  0  0  0  0  0  0
   25.5667   17.9685   38.8925 C   0  0  0  0  0  0  0  0  0  0  0  0
   25.7623   18.3285   37.5222 C   0  0  0  0  0  0  0  0  0  0  0  0
   26.1169   17.9031   32.4287 C   0  0  0  0  0  0  0  0  0  0  0  0
   26.1796   18.0416   31.0117 C   0  0  0  0  0  0  0  0  0  0  0  0
   26.1704   18.8955   34.7572 C   0  0  0  0  0  0  0  0  0  0  0  0
   26.2809   19.0204   33.2799 C   0  0  0  0  0  0  0  0  0  0  0  0
   26.4461   19.2845   30.4540 C   0  0  0  0  0  0  0  0  0  0  0  0
   26.6474   20.3824   31.2720 C   0  0  0  0  0  0  0  0  0  0  0  0
   26.5796   20.2237   32.6654 C   0  0  0  0  0  0  0  0  0  0  0  0
   27.0672   18.6833   37.0549 C   0  0  0  0  0  0  0  0  0  0  0  0
   27.2640   19.0473   35.6857 C   0  0  0  0  0  0  0  0  0  0  0  0
   28.2452   18.6629   38.0316 C   0  0  0  0  0  0  0  0  0  0  0  0
   19.9086   17.9929   29.3085 O   0  0  0  0  0  0  0  0  0  0  0  0
   22.3876   16.0802   39.1904 O   0  0  0  0  0  0  0  0  0  0  0  0
   28.4178   19.4920   35.3098 O   0  0  0  0  0  0  0  0  0  0  0  0
   23.2516   20.6129   33.8588 N   0  0  0  0  0  0  0  0  0  0  0  0
   23.7180   18.4620   34.5202 N   0  0  0  0  0  0  0  0  0  0  0  0
  1  5  1  0
  1 31  2  0
  2 10  2  0
  2 32  1  0
  3  4  2  0
  3  6  1  0
  4  7  1  0
  5  6  1  0
  6  8  2  0
  7  9  2  0
  8  9  1  0
  8 11  1  0
  9 12  1  0
 10 15  1  0
 11 13  2  0
 12 34  2  0
 13 34  1  0
 13 35  1  0
 14 16  2  0
 14 32  1  0
 15 16  1  0
 16 19  1  0
 17 18  2  0
 17 20  1  0
 18 23  1  0
 18 35  1  0
 19 20  2  3
 20 28  1  0
 21 22  2  0
 21 24  1  0
 22 25  1  0
 23 24  1  0
 23 29  1  0
 24 27  2  0
 25 26  2  0
 26 27  1  0
 28 29  2  0
 28 30  1  0
 29 33  1  0
M  END
$$$$

     RDKit          3D

 24 26  0  0  0  0  0  0  0  0999 V2000
   21.8807   19.3700   31.0612 C   0  0  0  0  0  0  0  0  0  0  0  0
   22.0342   19.8643   29.7581 C   0  0  0  0  0  0  0  0  0  0  0  0
   22.4623   17.0094   40.2955 C   0  0  0  0  0  0  0  0  0  0  0  0
   22.7409   20.6660   36.1319 C   0  0  0  0  0  0  0  0  0  0  0  0
   23.0772   18.3302   38.2228 C   0  0  0  0  0  0  0  0  0  0  0  0
   22.9891   19.0873   31.8687 C   0  0  0  0  0  0  0  0  0  0  0  0
   23.2328   17.1854   39.0312 C   0  0  0  0  0  0  0  0  0  0  0  0
   23.3085   20.1793   29.2722 C   0  0  0  0  0  0  0  0  0  0  0  0
   23.2188   21.9147   35.3821 C   0  0  0  0  0  0  0  0  0  0  0  0
   23.6707   19.4931   35.9877 C   0  0  0  0  0  0  0  0  0  0  0  0
   23.7362   18.4075   36.9776 C   0  0  0  0  0  0  0  0  0  0  0  0
   24.0914   16.1552   38.6626 C   0  0  0  0  0  0  0  0  0  0  0  0
   24.2909   19.4149   31.3508 C   0  0  0  0  0  0  0  0  0  0  0  0
   24.4337   19.9434   30.0395 C   0  0  0  0  0  0  0  0  0  0  0  0
   24.5353   17.3203   36.6091 C   0  0  0  0  0  0  0  0  0  0  0  0
   24.7673   16.2189   37.4560 C   0  0  0  0  0  0  0  0  0  0  0  0
   24.9735   18.2921   34.4586 C   0  0  0  0  0  0  0  0  0  0  0  0
   25.5561   18.0996   33.1198 C   0  0  0  0  0  0  0  0  0  0  0  0
   25.5669   19.2517   32.1521 C   0  0  2  0  0  0  0  0  0  0  0  0
   26.3064   20.5233   32.6051 C   0  0  0  0  0  0  0  0  0  0  0  0
   23.0651   21.9106   34.0907 O   0  0  0  0  0  0  0  0  0  0  0  0
   23.6833   22.8833   35.9995 O   0  0  0  0  0  0  0  0  0  0  0  0
   24.3413   19.4030   34.8300 N   0  0  0  0  0  0  0  0  0  0  0  0
   25.1119   17.3209   35.3693 N   0  0  0  0  0  0  0  0  0  0  0  0
  1  2  2  0
  1  6  1  0
  2  8  1  0
  3  7  1  0
  4  9  1  0
  4 10  1  0
  5  7  2  0
  5 11  1  0
  6 13  2  0
  7 12  1  0
  8 14  2  0
  9 21  2  0
  9 22  1  0
 10 11  2  0
 10 23  1  0
 11 15  1  0
 12 16  2  0
 13 14  1  0
 13 19  1  0
 15 16  1  0
 15 24  2  0
 17 18  1  0
 17 23  2  0
 17 24  1  0
 18 19  1  0
 19 20  1  1
M  END
$$$$

     RDKit          3D

 23 25  0  0  0  0  0  0  0  0999 V2000
   21.5985   18.3778   30.3595 C   0  0  0  0  0  0  0  0  0  0  0  0
   21.5340   19.7447   30.6090 C   0  0  0  0  0  0  0  0  0  0  0  0
   22.3402   20.6190   36.6820 C   0  0  0  0  0  0  0  0  0  0  0  0
   22.3258   23.6282   34.6326 C   0  0  0  0  0  0  0  0  0  0  0  0
   22.6626   20.4340   31.0758 C   0  0  0  0  0  0  0  0  0  0  0  0
   22.7059   21.5394   35.7321 C   0  0  0  0  0  0  0  0  0  0  0  0
   22.7692   17.6674   30.6057 C   0  0  0  0  0  0  0  0  0  0  0  0
   22.9670   19.3638   36.7419 C   0  0  0  0  0  0  0  0  0  0  0  0
   23.6786   21.2174   34.8063 C   0  0  1  0  0  0  0  0  0  0  0  0
   23.8997   18.2821   31.1392 C   0  0  0  0  0  0  0  0  0  0  0  0
   23.8557   19.7132   31.3523 C   0  0  0  0  0  0  0  0  0  0  0  0
   23.7219   23.4304   34.0666 C   0  0  0  0  0  0  0  0  0  0  0  0
   24.0221   19.1030   35.8610 C   0  0  0  0  0  0  0  0  0  0  0  0
   24.3247   20.0059   34.8795 C   0  0  0  0  0  0  0  0  0  0  0  0
   25.0328   16.6563   32.7324 C   0  0  0  0  0  0  0  0  0  0  0  0
   25.0931   17.0250   35.1498 C   0  0  0  0  0  0  0  0  0  0  0  0
   25.1190   17.4313   31.4700 C   0  0  0  0  0  0  0  0  0  0  0  0
   22.1793   22.8228   35.7775 O   0  0  0  0  0  0  0  0  0  0  0  0
   23.9191   22.0660   33.7368 O   0  0  0  0  0  0  0  0  0  0  0  0
   24.8420   15.4361   32.7979 O   0  0  0  0  0  0  0  0  0  0  0  0
   24.7153   17.9203   36.0367 N   0  0  0  0  0  0  0  0  0  0  0  0
   25.2031   17.3605   33.8388 N   0  0  0  0  0  0  0  0  0  0  0  0
   25.3026   15.8907   35.7506 F   0  0  0  0  0  0  0  0  0  0  0  0
  1  2  2  0
  1  7  1  0
  2  5  1  0
  3  6  2  0
  3  8  1  0
  4 12  1  0
  4 18  1  0
  5 11  2  0
  6  9  1  0
  6 18  1  0
  7 10  2  0
  8 13  1  0
  9 14  1  0
  9 19  1  6
 10 11  1  0
 10 17  1  0
 12 19  1  0
 13 14  2  0
 13 21  1  0
 15 17  1  0
 15 20  2  0
 15 22  1  0
 16 21  2  3
 16 22  1  0
 16 23  1  0
M  END
$$$$

     RDKit          3D

 43 48  0  0  0  0  0  0  0  0999 V2000
   21.1200   26.3013   31.8729 C   0  0  0  0  0  0  0  0  0  0  0  0
   21.4194   15.7799   41.4499 C   0  0  0  0  0  0  0  0  0  0  0  0
   21.7126   15.9524   40.1323 C   0  0  0  0  0  0  0  0  0  0  0  0
   21.9081   24.6726   33.5605 C   0  0  0  0  0  0  0  0  0  0  0  0
   21.8689   27.2146   34.8310 C   0  0  0  0  0  0  0  0  0  0  0  0
   22.0533   16.5076   42.5044 C   0  0  0  0  0  0  0  0  0  0  0  0
   22.3939   19.1858   36.4880 C   0  0  0  0  0  0  0  0  0  0  0  0
   22.4272   19.4971   34.9711 C   0  0  0  0  0  0  0  0  0  0  0  0
   22.4549   23.4099   32.9534 C   0  0  0  0  0  0  0  0  0  0  0  0
   22.6665   16.8933   39.7314 C   0  0  0  0  0  0  0  0  0  0  0  0
   22.6000   23.1169   31.6250 C   0  0  0  0  0  0  0  0  0  0  0  0
   22.8317   22.4524   33.8711 C   0  0  0  0  0  0  0  0  0  0  0  0
   22.9737   17.5011   42.0558 C   0  0  0  0  0  0  0  0  0  0  0  0
   23.1605   21.8999   31.1768 C   0  0  0  0  0  0  0  0  0  0  0  0
   23.2325   17.6817   40.7095 C   0  0  0  0  0  0  0  0  0  0  0  0
   23.3194   21.2141   33.4741 C   0  0  0  0  0  0  0  0  0  0  0  0
   23.4586   18.6223   31.7521 C   0  0  0  0  0  0  0  0  0  0  0  0
   23.5121   20.9784   32.1356 C   0  0  0  0  0  0  0  0  0  0  0  0
   23.7569   18.8438   36.9706 C   0  0  0  0  0  0  0  0  0  0  0  0
   23.7401   27.7467   33.1926 C   0  0  0  0  0  0  0  0  0  0  0  0
   24.0036   17.8156   37.9021 C   0  0  0  0  0  0  0  0  0  0  0  0
   24.2232   17.3646   31.7996 C   0  0  2  0  0  0  0  0  0  0  0  0
   24.5308   17.0824   33.2538 C   0  0  0  0  0  0  0  0  0  0  0  0
   24.6829   20.5389   35.3528 C   0  0  1  0  0  0  0  0  0  0  0  0
   24.8638   19.5560   36.4305 C   0  0  0  0  0  0  0  0  0  0  0  0
   25.2968   17.6050   38.3718 C   0  0  0  0  0  0  0  0  0  0  0  0
   25.5500   17.4694   31.1623 C   0  0  2  0  0  0  0  0  0  0  0  0
   25.5301   19.8837   31.2690 C   0  0  1  0  0  0  0  0  0  0  0  0
   25.9305   21.1825   34.8363 C   0  0  0  0  0  0  0  0  0  0  0  0
   26.1881   16.2441   31.0043 C   0  0  0  0  0  0  0  0  0  0  0  0
   26.1846   18.6410   30.8071 C   0  0  2  0  0  0  0  0  0  0  0  0
   26.1747   19.3473   36.8958 C   0  0  0  0  0  0  0  0  0  0  0  0
   26.3846   18.3475   37.8566 C   0  0  0  0  0  0  0  0  0  0  0  0
   27.2144   16.1270   30.1791 C   0  0  0  0  0  0  0  0  0  0  0  0
   27.2803   18.5054   30.0123 C   0  0  0  0  0  0  0  0  0  0  0  0
   27.7081   17.2979   29.6975 C   0  0  0  0  0  0  0  0  0  0  0  0
   22.2388   18.6825   32.0447 O   0  0  0  0  0  0  0  0  0  0  0  0
   22.9363   17.0651   38.3837 O   0  0  0  0  0  0  0  0  0  0  0  0
   22.2501   25.9001   32.8236 N   0  0  0  0  0  0  0  0  0  0  0  0
   22.5236   27.0431   33.5885 N   0  0  0  0  0  0  0  0  0  0  0  0
   23.5388   20.3853   34.5578 N   0  0  0  0  0  0  0  0  0  0  0  0
   24.1934   19.8091   31.7071 N   0  0  0  0  0  0  0  0  0  0  0  0
   26.1423   20.9022   31.5233 F   0  0  0  0  0  0  0  0  0  0  0  0
  1 39  1  0
  2  3  2  0
  2  6  1  0
  3 10  1  0
  4  9  1  0
  4 39  1  0
  5 40  1  0
  6 13  1  0
  7  8  1  0
  7 19  1  0
  8 41  1  0
  9 11  2  0
  9 12  1  0
 10 15  2  0
 10 38  1  0
 11 14  1  0
 12 16  1  0
 13 15  1  0
 14 18  1  0
 16 18  2  0
 16 41  1  0
 17 22  1  0
 17 37  2  0
 17 42  1  0
 18 42  1  0
 19 21  2  0
 19 25  1  0
 20 40  1  0
 21 26  1  0
 21 38  1  0
 22 23  1  1
 22 27  1  0
 24 25  1  0
 24 29  1  6
 24 41  1  0
 25 32  2  0
 26 33  2  0
 27 30  1  1
 27 31  1  0
 28 31  1  0
 28 42  1  0
 28 43  1  1
 30 34  2  0
 31 35  1  6
 32 33  1  0
 34 36  1  0
 35 36  2  0
 39 40  1  0
M  END
$$$$

     RDKit          3D

 38 42  0  0  0  0  0  0  0  0999 V2000
   21.5992   17.6441   28.5692 C   0  0  0  0  0  0  0  0  0  0  0  0
   21.7311   15.8856   39.9122 C   0  0  0  0  0  0  0  0  0  0  0  0
   21.7950   16.3410   41.2071 C   0  0  0  0  0  0  0  0  0  0  0  0
   22.0524   18.2267   29.7569 C   0  0  0  0  0  0  0  0  0  0  0  0
   22.6508   16.3646   38.9522 C   0  0  0  0  0  0  0  0  0  0  0  0
   22.6939   17.3118   41.5680 C   0  0  0  0  0  0  0  0  0  0  0  0
   22.4886   19.4237   27.2921 C   0  0  0  0  0  0  0  0  0  0  0  0
   22.7039   19.4364   29.6826 C   0  0  0  0  0  0  0  0  0  0  0  0
   22.5508   20.1802   36.3196 C   0  0  0  0  0  0  0  0  0  0  0  0
   22.8064   19.2252   37.3409 C   0  0  0  0  0  0  0  0  0  0  0  0
   22.9578   20.0259   28.4642 C   0  0  0  0  0  0  0  0  0  0  0  0
   22.9147   21.4742   34.2662 C   0  0  0  0  0  0  0  0  0  0  0  0
   23.2070   20.0850   30.9232 C   0  0  0  0  0  0  0  0  0  0  0  0
   23.4584   20.5866   35.3852 C   0  0  0  0  0  0  0  0  0  0  0  0
   23.5496   17.3666   39.3228 C   0  0  0  0  0  0  0  0  0  0  0  0
   23.5551   17.8020   40.6236 C   0  0  0  0  0  0  0  0  0  0  0  0
   24.1356   18.7858   37.4577 C   0  0  0  0  0  0  0  0  0  0  0  0
   24.4994   20.0089   31.3973 C   0  0  0  0  0  0  0  0  0  0  0  0
   24.5398   20.6933   32.5744 C   0  0  1  0  0  0  0  0  0  0  0  0
   24.8229   20.1570   35.5506 C   0  0  0  0  0  0  0  0  0  0  0  0
   25.1445   19.2006   36.5491 C   0  0  0  0  0  0  0  0  0  0  0  0
   25.6435   19.3352   30.7706 C   0  0  0  0  0  0  0  0  0  0  0  0
   25.8115   17.9528   30.9963 C   0  0  0  0  0  0  0  0  0  0  0  0
   26.5423   20.0160   29.9720 C   0  0  0  0  0  0  0  0  0  0  0  0
   26.9527   17.2978   30.4838 C   0  0  0  0  0  0  0  0  0  0  0  0
   27.6465   19.3884   29.4255 C   0  0  0  0  0  0  0  0  0  0  0  0
   27.8174   18.0281   29.6759 C   0  0  0  0  0  0  0  0  0  0  0  0
   24.4975   17.8046   38.4139 O   0  0  0  0  0  0  0  0  0  0  0  0
   25.6697   21.1172   33.0223 O   0  0  0  0  0  0  0  0  0  0  0  0
   26.8247   19.5157   33.8952 O   0  0  0  0  0  0  0  0  0  0  0  0
   26.9359   21.7442   34.9742 O   0  0  0  0  0  0  0  0  0  0  0  0
   21.8318   18.1958   27.3566 N   0  0  0  0  0  0  0  0  0  0  0  0
   22.4841   20.7262   31.8946 N   0  0  0  0  0  0  0  0  0  0  0  0
   23.3104   21.0833   32.9364 N   0  0  0  0  0  0  0  0  0  0  0  0
   23.6670   21.1597   28.3697 F   0  0  0  0  0  0  0  0  0  0  0  0
   20.7639   15.4742   42.4813 Cl  0  0  0  0  0  0  0  0  0  0  0  0
   28.7441   20.2455   28.5042 Cl  0  0  0  0  0  0  0  0  0  0  0  0
   26.1735   20.6696   34.4833 P   0  0  0  0  0  0  0  0  0  0  0  0
  1  4  1  0
  1 32  2  0
  2  3  2  0
  2  5  1  0
  3  6  1  0
  3 36  1  0
  4  8  1  0
  5 15  2  0
  6 16  2  0
  7 11  1  0
  7 32  1  0
  8 11  2  0
  8 13  1  0
  9 10  2  0
  9 14  1  0
 10 17  1  0
 11 35  1  0
 12 14  1  0
 12 34  1  0
 13 18  2  0
 13 33  1  0
 14 20  2  0
 15 16  1  0
 15 28  1  0
 17 21  2  0
 17 28  1  0
 18 19  1  0
 18 22  1  0
 19 29  1  6
 19 34  1  0
 20 21  1  0
 22 23  2  0
 22 24  1  0
 23 25  1  0
 24 26  2  0
 25 27  2  0
 26 27  1  0
 26 37  1  0
 29 38  1  0
 30 38  1  0
 31 38  1  0
 33 34  1  0
M  END
$$$$

     RDKit          3D

 24 27  0  0  0  0  0  0  0  0999 V2000
   21.5424   17.3773   27.9589 C   0  0  0  0  0  0  0  0  0  0  0  0
   21.6502   19.0853   30.4508 C   0  0  0  0  0  0  0  0  0  0  0  0
   22.3714   19.1457   29.2541 C   0  0  0  0  0  0  0  0  0  0  0  0
   22.2441   19.4580   31.6392 C   0  0  0  0  0  0  0  0  0  0  0  0
   22.6423   21.7345   35.7765 C   0  0  0  0  0  0  0  0  0  0  0  0
   22.7969   20.6318   36.6509 C   0  0  0  0  0  0  0  0  0  0  0  0
   23.0277   18.1515   38.2911 C   0  0  0  0  0  0  0  0  0  0  0  0
   23.1376   21.6602   34.4255 C   0  0  0  0  0  0  0  0  0  0  0  0
   23.2751   17.0280   39.1213 C   0  0  0  0  0  0  0  0  0  0  0  0
   23.7000   19.6112   29.2504 C   0  0  0  0  0  0  0  0  0  0  0  0
   23.4836   19.4659   36.2212 C   0  0  0  0  0  0  0  0  0  0  0  0
   23.5687   19.8672   31.6445 C   0  0  0  0  0  0  0  0  0  0  0  0
   23.7406   18.3251   37.0993 C   0  0  0  0  0  0  0  0  0  0  0  0
   23.8468   20.4794   34.0194 C   0  0  0  0  0  0  0  0  0  0  0  0
   23.9700   19.4103   34.9153 C   0  0  0  0  0  0  0  0  0  0  0  0
   24.2545   16.1105   38.7432 C   0  0  0  0  0  0  0  0  0  0  0  0
   24.3210   19.9342   30.4730 C   0  0  0  0  0  0  0  0  0  0  0  0
   24.3853   20.3046   32.7185 C   0  0  2  0  0  0  0  0  0  0  0  0
   24.7449   17.3686   36.7565 C   0  0  0  0  0  0  0  0  0  0  0  0
   24.9760   16.2698   37.5721 C   0  0  0  0  0  0  0  0  0  0  0  0
   25.6570   20.5759   32.1586 C   0  0  0  0  0  0  0  0  0  0  0  0
   21.7540   18.7332   28.1154 O   0  0  0  0  0  0  0  0  0  0  0  0
   22.0362   22.7938   36.2434 O   0  0  0  0  0  0  0  0  0  0  0  0
   25.5938   20.3228   30.8021 N   0  0  0  0  0  0  0  0  0  0  0  0
  1 22  1  0
  2  3  2  0
  2  4  1  0
  3 10  1  0
  3 22  1  0
  4 12  2  0
  5  6  2  0
  5  8  1  0
  5 23  1  0
  6 11  1  0
  7  9  2  0
  7 13  1  0
  8 14  2  0
  9 16  1  0
 10 17  2  0
 11 13  1  0
 11 15  2  0
 12 17  1  0
 12 18  1  0
 13 19  2  0
 14 15  1  0
 18 14  1  6
 16 20  2  0
 17 24  1  0
 18 21  1  0
 19 20  1  0
 21 24  1  0
M  END
$$$$

     RDKit          3D

 43 49  0  0  0  0  0  0  0  0999 V2000
   20.6214   24.9189   32.2618 C   0  0  0  0  0  0  0  0  0  0  0  0
   20.7392   27.1297   31.2452 C   0  0  0  0  0  0  0  0  0  0  0  0
   21.6558   15.5391   40.6818 C   0  0  0  0  0  0  0  0  0  0  0  0
   21.8624   16.1124   41.9094 C   0  0  0  0  0  0  0  0  0  0  0  0
   22.0607   18.3188   29.1167 C   0  0  0  0  0  0  0  0  0  0  0  0
   22.0974   24.6494   32.6401 C   0  0  0  0  0  0  0  0  0  0  0  0
   22.2258   16.0796   39.5828 C   0  0  0  0  0  0  0  0  0  0  0  0
   22.3825   18.8282   27.8629 C   0  0  0  0  0  0  0  0  0  0  0  0
   22.2540   19.0836   30.2346 C   0  0  0  0  0  0  0  0  0  0  0  0
   22.6731   17.1919   42.0142 C   0  0  0  0  0  0  0  0  0  0  0  0
   22.5108   22.5509   31.3947 C   0  0  0  0  0  0  0  0  0  0  0  0
   22.7822   18.8017   37.9852 C   0  0  0  0  0  0  0  0  0  0  0  0
   22.9570   20.1053   27.7367 C   0  0  0  0  0  0  0  0  0  0  0  0
   22.7497   20.3640   30.1719 C   0  0  0  0  0  0  0  0  0  0  0  0
   22.7602   21.1679   31.4005 C   0  0  0  0  0  0  0  0  0  0  0  0
   22.8025   22.6341   33.7844 C   0  0  0  0  0  0  0  0  0  0  0  0
   23.0205   17.1868   39.6923 C   0  0  0  0  0  0  0  0  0  0  0  0
   23.1598   20.8416   28.9152 C   0  0  0  0  0  0  0  0  0  0  0  0
   23.0647   21.2284   33.7154 C   0  0  0  0  0  0  0  0  0  0  0  0
   23.2438   17.7564   40.9081 C   0  0  0  0  0  0  0  0  0  0  0  0
   23.2131   19.3841   36.7823 C   0  0  0  0  0  0  0  0  0  0  0  0
   23.4424   20.4585   34.9049 C   0  0  0  0  0  0  0  0  0  0  0  0
   24.4170   18.9546   36.1974 C   0  0  0  0  0  0  0  0  0  0  0  0
   24.5316   19.6618   34.9689 C   0  0  0  0  0  0  0  0  0  0  0  0
   24.7297   17.3935   37.9536 C   0  0  0  0  0  0  0  0  0  0  0  0
   24.9157   18.1046   33.2408 C   0  0  0  0  0  0  0  0  0  0  0  0
   25.2222   17.9602   36.7879 C   0  0  0  0  0  0  0  0  0  0  0  0
   25.7265   16.2510   31.8032 C   0  0  0  0  0  0  0  0  0  0  0  0
   25.7824   17.5930   32.1667 C   0  0  0  0  0  0  0  0  0  0  0  0
   26.0157   20.2873   33.1518 C   0  0  0  0  0  0  0  0  0  0  0  0
   26.4808   15.7876   30.7306 C   0  0  0  0  0  0  0  0  0  0  0  0
   26.6651   18.4240   31.5428 C   0  0  0  0  0  0  0  0  0  0  0  0
   26.9035   19.7801   32.0343 C   0  0  0  0  0  0  0  0  0  0  0  0
   27.3003   16.6352   30.0532 C   0  0  0  0  0  0  0  0  0  0  0  0
   27.3945   17.9517   30.4284 C   0  0  0  0  0  0  0  0  0  0  0  0
   22.3266   23.1610   30.2419 O   0  0  0  0  0  0  0  0  0  0  0  0
   20.4081   26.3232   32.3765 N   0  0  0  0  0  0  0  0  0  0  0  0
   22.6534   20.3293   35.9767 N   0  0  0  0  0  0  0  0  0  0  0  0
   22.4715   23.2478   32.6008 N   0  0  0  0  0  0  0  0  0  0  0  0
   22.9878   20.5634   32.5512 N   0  0  0  0  0  0  0  0  0  0  0  0
   23.5361   17.7542   38.5285 N   0  0  0  0  0  0  0  0  0  0  0  0
   25.4718   19.2344   34.0161 N   0  0  0  0  0  0  0  0  0  0  0  0
   25.4532   16.4412   38.5377 F   0  0  0  0  0  0  0  0  0  0  0  0
  1  6  1  0
  1 37  1  0
  2 37  1  0
  3  4  2  0
  3  7  1  0
  4 10  1  0
  5  8  2  0
  5  9  1  0
  6 39  1  0
  7 17  2  0
  8 13  1  0
  9 14  2  0
 10 20  2  0
 11 15  1  0
 11 36  2  0
 11 39  1  0
 12 21  1  0
 12 41  1  0
 13 18  2  0
 14 15  1  0
 14 18  1  0
 15 40  2  0
 16 19  2  0
 16 39  1  0
 17 20  1  0
 17 41  1  0
 19 22  1  0
 19 40  1  0
 21 23  2  0
 21 38  1  0
 22 24  2  0
 22 38  1  0
 23 24  1  0
 23 27  1  0
 24 42  1  0
 25 27  2  0
 25 41  1  0
 25 43  1  0
 26 29  1  0
 26 42  1  0
 28 29  1  0
 28 31  1  0
 29 32  2  0
 30 33  1  0
 30 42  1  0
 31 34  2  0
 32 33  1  0
 32 35  1  0
 34 35  1  0
M  END
$$$$

     RDKit          3D

 12 13  0  0  0  0  0  0  0  0999 V2000
   22.3448   20.4090   31.3747 C   0  0  0  0  0  0  0  0  0  0  0  0
   23.1189   19.6576   32.4168 C   0  0  0  0  0  0  0  0  0  0  0  0
   23.2854   19.6317   35.9971 C   0  0  0  0  0  0  0  0  0  0  0  0
   23.5619   19.2621   34.6774 C   0  0  0  0  0  0  0  0  0  0  0  0
   23.7774   18.8943   37.0693 C   0  0  0  0  0  0  0  0  0  0  0  0
   24.0264   18.6724   32.0620 C   0  0  0  0  0  0  0  0  0  0  0  0
   24.6233   17.7922   36.8014 C   0  0  0  0  0  0  0  0  0  0  0  0
   24.7007   17.9368   33.0049 C   0  0  0  0  0  0  0  0  0  0  0  0
   24.4641   18.2021   34.3883 C   0  0  0  0  0  0  0  0  0  0  0  0
   25.1766   16.9973   37.9403 C   0  0  0  0  0  0  0  0  0  0  0  0
   24.9796   17.4615   35.4969 C   0  0  0  0  0  0  0  0  0  0  0  0
   22.9518   19.9694   33.7063 N   0  0  0  0  0  0  0  0  0  0  0  0
  1  2  1  0
  2  6  2  0
  2 12  1  0
  3  4  1  0
  3  5  2  0
  4  9  1  0
  4 12  2  0
  5  7  1  0
  6  8  1  0
  7 10  1  0
  7 11  2  0
  8  9  2  0
  9 11  1  0
M  END
$$$$

     RDKit          3D

 36 40  0  0  0  0  0  0  0  0999 V2000
   21.1107   17.5982   29.0118 C   0  0  0  0  0  0  0  0  0  0  0  0
   21.6809   15.9878   41.0508 C   0  0  0  0  0  0  0  0  0  0  0  0
   21.7060   18.1225   27.8651 C   0  0  0  0  0  0  0  0  0  0  0  0
   21.4658   18.1019   30.2641 C   0  0  0  0  0  0  0  0  0  0  0  0
   22.0262   15.6509   39.7549 C   0  0  0  0  0  0  0  0  0  0  0  0
   22.3944   16.9384   41.8078 C   0  0  0  0  0  0  0  0  0  0  0  0
   22.3783   19.2194   30.3528 C   0  0  0  0  0  0  0  0  0  0  0  0
   22.6518   19.1309   27.9498 C   0  0  0  0  0  0  0  0  0  0  0  0
   22.4633   19.1705   32.8999 C   0  0  0  0  0  0  0  0  0  0  0  0
   22.7230   19.8538   31.6378 C   0  0  2  0  0  0  0  0  0  0  0  0
   23.1075   16.2661   39.1423 C   0  0  0  0  0  0  0  0  0  0  0  0
   22.9880   19.6659   29.1590 C   0  0  0  0  0  0  0  0  0  0  0  0
   22.9990   19.5288   35.2054 C   0  0  0  0  0  0  0  0  0  0  0  0
   23.3786   21.1829   33.2505 C   0  0  0  0  0  0  0  0  0  0  0  0
   23.4646   17.5519   41.1289 C   0  0  0  0  0  0  0  0  0  0  0  0
   23.8395   17.2187   39.8437 C   0  0  0  0  0  0  0  0  0  0  0  0
   24.0790   18.6618   37.2643 C   0  0  0  0  0  0  0  0  0  0  0  0
   24.2743   19.2285   35.9892 C   0  0  0  0  0  0  0  0  0  0  0  0
   25.1757   18.3943   38.1003 C   0  0  0  0  0  0  0  0  0  0  0  0
   25.6466   19.4843   35.6072 C   0  0  0  0  0  0  0  0  0  0  0  0
   25.9218   17.8449   33.0129 C   0  0  0  0  0  0  0  0  0  0  0  0
   26.0170   17.2841   31.7199 C   0  0  0  0  0  0  0  0  0  0  0  0
   26.1406   19.2442   33.1646 C   0  0  0  0  0  0  0  0  0  0  0  0
   26.0072   20.0922   34.3088 C   0  0  0  0  0  0  0  0  0  0  0  0
   26.3010   18.1385   30.6406 C   0  0  0  0  0  0  0  0  0  0  0  0
   26.4217   20.0385   32.1020 C   0  0  0  0  0  0  0  0  0  0  0  0
   26.4759   18.5940   37.7031 C   0  0  0  0  0  0  0  0  0  0  0  0
   26.4929   19.4852   30.8546 C   0  0  0  0  0  0  0  0  0  0  0  0
   26.7196   19.1702   36.4312 C   0  0  0  0  0  0  0  0  0  0  0  0
   26.7545   20.4956   29.8229 C   0  0  0  0  0  0  0  0  0  0  0  0
   29.0835   18.9072   36.6888 C   0  0  0  0  0  0  0  0  0  0  0  0
   21.9107   19.3525   35.7246 O   0  0  0  0  0  0  0  0  0  0  0  0
   24.9909   17.8200   39.3340 O   0  0  0  0  0  0  0  0  0  0  0  0
   27.9887   19.4438   35.9795 O   0  0  0  0  0  0  0  0  0  0  0  0
   23.0077   19.9683   33.9458 N   0  0  0  0  0  0  0  0  0  0  0  0
   23.1660   21.0995   31.7376 N   0  0  0  0  0  0  0  0  0  0  0  0
  1  3  2  0
  1  4  1  0
  2  5  2  0
  2  6  1  0
  3  8  1  0
  4  7  2  0
  5 11  1  0
  6 15  1  0
 10  7  1  6
  7 12  1  0
  8 12  2  0
  9 10  1  0
  9 35  1  0
 10 36  1  0
 11 16  1  0
 13 18  1  0
 13 32  2  0
 13 35  1  0
 14 35  1  0
 14 36  1  0
 15 16  2  0
 16 33  1  0
 17 18  2  0
 17 19  1  0
 18 20  1  0
 19 27  2  0
 19 33  1  0
 20 24  1  0
 20 29  2  0
 21 22  2  0
 21 23  1  0
 22 25  1  0
 23 24  1  0
 23 26  2  0
 25 28  2  0
 26 28  1  0
 27 29  1  0
 28 30  1  0
 29 34  1  0
 31 34  1  0
M  END
$$$$

     RDKit          3D

 28 31  0  0  0  0  0  0  0  0999 V2000
   22.2376   21.9166   31.6111 C   0  0  0  0  0  0  0  0  0  0  0  0
   22.5350   22.8647   32.6601 C   0  0  0  0  0  0  0  0  0  0  0  0
   22.9438   19.4447   29.9022 C   0  0  0  0  0  0  0  0  0  0  0  0
   22.7427   21.5181   35.9790 C   0  0  0  0  0  0  0  0  0  0  0  0
   23.1679   17.2143   39.4962 C   0  0  0  0  0  0  0  0  0  0  0  0
   23.0449   18.2720   38.6223 C   0  0  0  0  0  0  0  0  0  0  0  0
   23.4485   21.5272   34.7234 C   0  0  0  0  0  0  0  0  0  0  0  0
   23.3467   22.7175   33.8532 C   0  0  0  0  0  0  0  0  0  0  0  0
   23.6641   19.4047   36.4803 C   0  0  0  0  0  0  0  0  0  0  0  0
   23.9493   16.1347   39.1563 C   0  0  0  0  0  0  0  0  0  0  0  0
   23.7300   18.2842   37.3874 C   0  0  0  0  0  0  0  0  0  0  0  0
   24.3106   19.4130   30.5431 C   0  0  0  0  0  0  0  0  0  0  0  0
   24.3853   19.3604   35.2361 C   0  0  0  0  0  0  0  0  0  0  0  0
   24.2317   20.4485   34.3971 C   0  0  0  0  0  0  0  0  0  0  0  0
   24.6400   16.1282   37.9605 C   0  0  0  0  0  0  0  0  0  0  0  0
   24.5283   17.1945   37.0490 C   0  0  0  0  0  0  0  0  0  0  0  0
   24.4900   18.6132   31.6870 C   0  0  0  0  0  0  0  0  0  0  0  0
   25.1640   18.1694   34.8920 C   0  0  0  0  0  0  0  0  0  0  0  0
   25.2399   17.1479   35.8608 C   0  0  0  0  0  0  0  0  0  0  0  0
   25.3980   20.1638   30.0477 C   0  0  0  0  0  0  0  0  0  0  0  0
   25.9125   17.7954   33.6272 C   0  0  0  0  0  0  0  0  0  0  0  0
   25.7338   18.5615   32.3509 C   0  0  0  0  0  0  0  0  0  0  0  0
   26.6758   20.0868   30.6836 C   0  0  0  0  0  0  0  0  0  0  0  0
   26.8060   19.2959   31.8434 C   0  0  0  0  0  0  0  0  0  0  0  0
   22.1160   18.5750   30.2114 O   0  0  0  0  0  0  0  0  0  0  0  0
   21.9656   22.4662   36.2828 O   0  0  0  0  0  0  0  0  0  0  0  0
   22.6664   20.3231   29.0405 O   0  0  0  0  0  0  0  0  0  0  0  0
   22.9000   20.4597   36.8156 N   0  0  0  0  0  0  0  0  0  0  0  0
  1  2  1  0
  2  8  1  0
  3 12  1  0
  3 25  2  0
  3 27  1  0
  4  7  1  0
  4 26  2  0
  4 28  1  0
  5  6  1  0
  5 10  2  0
  6 11  2  0
  7  8  1  0
  7 14  2  0
  9 11  1  0
  9 13  1  0
  9 28  2  0
 10 15  1  0
 11 16  1  0
 12 17  1  0
 12 20  2  0
 13 14  1  0
 13 18  2  0
 15 16  2  0
 16 19  1  0
 17 22  1  0
 18 19  1  0
 18 21  1  0
 20 23  1  0
 21 22  1  0
 22 24  2  0
 23 24  1  0
M  END
$$$$

     RDKit          3D

 30 33  0  0  0  0  0  0  0  0999 V2000
   22.0995   18.7350   30.2585 C   0  0  0  0  0  0  0  0  0  0  0  0
   22.1303   20.1209   30.1054 C   0  0  0  0  0  0  0  0  0  0  0  0
   22.0116   21.0288   36.4355 C   0  0  0  0  0  0  0  0  0  0  0  0
   22.2906   22.1632   35.7034 C   0  0  0  0  0  0  0  0  0  0  0  0
   22.7753   19.8841   36.3282 C   0  0  0  0  0  0  0  0  0  0  0  0
   23.0202   17.1331   40.3993 C   0  0  0  0  0  0  0  0  0  0  0  0
   23.1832   18.0570   30.7655 C   0  0  0  0  0  0  0  0  0  0  0  0
   23.3177   20.7907   30.3558 C   0  0  0  0  0  0  0  0  0  0  0  0
   23.3297   22.1733   34.8240 C   0  0  0  0  0  0  0  0  0  0  0  0
   23.6927   17.0292   37.9048 C   0  0  0  0  0  0  0  0  0  0  0  0
   23.9610   17.2674   39.2287 C   0  0  1  0  0  0  0  0  0  0  0  0
   23.8797   19.8967   35.4557 C   0  0  0  0  0  0  0  0  0  0  0  0
   24.1654   21.0416   34.7291 C   0  0  0  0  0  0  0  0  0  0  0  0
   24.3526   18.7405   31.0765 C   0  0  0  0  0  0  0  0  0  0  0  0
   24.4453   20.1287   30.8145 C   0  0  0  0  0  0  0  0  0  0  0  0
   24.7991   17.5761   35.7240 C   0  0  0  0  0  0  0  0  0  0  0  0
   24.7984   18.9274   35.1618 C   0  0  0  0  0  0  0  0  0  0  0  0
   25.6591   17.8977   38.0715 C   0  0  0  0  0  0  0  0  0  0  0  0
   25.6237   19.5563   34.2242 C   0  0  0  0  0  0  0  0  0  0  0  0
   25.9386   16.8629   30.8349 C   0  0  0  0  0  0  0  0  0  0  0  0
   26.5702   18.7691   32.0925 C   0  0  0  0  0  0  0  0  0  0  0  0
   26.8147   18.9126   33.5713 C   0  0  0  0  0  0  0  0  0  0  0  0
   27.0169   18.4427   37.8110 C   0  0  0  0  0  0  0  0  0  0  0  0
   25.2277   20.7881   33.9321 O   0  0  0  0  0  0  0  0  0  0  0  0
   27.4564   19.0547   31.3202 O   0  0  0  0  0  0  0  0  0  0  0  0
   24.7473   17.5024   37.1895 N   0  0  0  0  0  0  0  0  0  0  0  0
   25.1663   17.8075   39.3023 N   0  0  0  0  0  0  0  0  0  0  0  0
   25.4445   18.0724   31.6863 N   0  0  0  0  0  0  0  0  0  0  0  0
   20.6884   17.9108   29.7569 Cl  0  0  0  0  0  0  0  0  0  0  0  0
   23.6147   23.5872   33.9549 Cl  0  0  0  0  0  0  0  0  0  0  0  0
  1  2  1  0
  1  7  2  0
  1 29  1  0
  2  8  1  0
  3  4  2  0
  3  5  1  0
  4  9  1  0
  5 12  2  0
 11  6  1  6
  7 14  1  0
  8 15  2  0
  9 13  2  0
  9 30  1  0
 10 11  1  0
 10 26  1  0
 11 27  1  0
 12 13  1  0
 12 17  1  0
 13 24  1  0
 14 15  1  0
 14 28  1  0
 16 17  1  0
 16 26  1  0
 17 19  2  0
 18 23  1  0
 18 26  1  0
 18 27  2  0
 19 22  1  0
 19 24  1  0
 20 28  1  0
 21 22  1  0
 21 25  2  0
 21 28  1  0
M  END
$$$$

     RDKit          3D

 35 38  0  0  0  0  0  0  0  0999 V2000
   21.2289   24.7156   32.4930 C   0  0  0  0  0  0  0  0  0  0  0  0
   22.0399   19.8429   36.8027 C   0  0  0  0  0  0  0  0  0  0  0  0
   22.0557   22.8526   30.9401 C   0  0  0  0  0  0  0  0  0  0  0  0
   21.9858   23.4228   32.2346 C   0  0  0  0  0  0  0  0  0  0  0  0
   22.5851   16.9733   40.8146 C   0  0  0  0  0  0  0  0  0  0  0  0
   22.5814   22.7557   33.3311 C   0  0  0  0  0  0  0  0  0  0  0  0
   22.7687   17.7549   38.7753 C   0  0  1  0  0  0  0  0  0  0  0  0
   22.7294   21.6299   30.7843 C   0  0  0  0  0  0  0  0  0  0  0  0
   23.4081   18.5647   32.2391 C   0  0  0  0  0  0  0  0  0  0  0  0
   23.3913   20.9811   31.8657 C   0  0  0  0  0  0  0  0  0  0  0  0
   23.2506   21.5281   33.1520 C   0  0  0  0  0  0  0  0  0  0  0  0
   23.5204   17.0702   39.7509 C   0  0  0  0  0  0  0  0  0  0  0  0
   23.5071   19.4025   36.9803 C   0  0  0  0  0  0  0  0  0  0  0  0
   23.7307   18.3821   37.8637 C   0  0  0  0  0  0  0  0  0  0  0  0
   24.1157   17.3251   32.2068 C   0  0  0  0  0  0  0  0  0  0  0  0
   24.3464   21.1179   35.3912 C   0  0  0  0  0  0  0  0  0  0  0  0
   24.5963   19.9745   36.3134 C   0  0  0  0  0  0  0  0  0  0  0  0
   24.9697   17.8649   38.0614 C   0  0  0  0  0  0  0  0  0  0  0  0
   25.3660   17.2020   31.4972 C   0  0  0  0  0  0  0  0  0  0  0  0
   25.3275   19.6781   31.2819 C   0  0  0  0  0  0  0  0  0  0  0  0
   25.9590   18.3625   31.0183 C   0  0  0  0  0  0  0  0  0  0  0  0
   25.9036   19.4596   36.5215 C   0  0  0  0  0  0  0  0  0  0  0  0
   25.9649   15.9435   31.1771 C   0  0  0  0  0  0  0  0  0  0  0  0
   26.0808   18.3985   37.4027 C   0  0  0  0  0  0  0  0  0  0  0  0
   27.1182   15.8886   30.3307 C   0  0  0  0  0  0  0  0  0  0  0  0
   27.1081   18.2975   30.2078 C   0  0  0  0  0  0  0  0  0  0  0  0
   27.6693   17.0699   29.8799 C   0  0  0  0  0  0  0  0  0  0  0  0
   21.5673   16.4125   40.6963 O   0  0  0  0  0  0  0  0  0  0  0  0
   22.0331   25.6657   33.0846 O   0  0  0  0  0  0  0  0  0  0  0  0
   22.5409   17.7004   38.3129 O   0  0  0  0  0  0  0  0  0  0  0  0
   22.7843   17.5815   41.8204 O   0  0  0  0  0  0  0  0  0  0  0  0
   24.7535   22.2407   35.6894 O   0  0  0  0  0  0  0  0  0  0  0  0
   25.9723   20.7171   31.1116 O   0  0  0  0  0  0  0  0  0  0  0  0
   23.6943   20.7739   34.2552 N   0  0  0  0  0  0  0  0  0  0  0  0
   24.0124   19.7333   31.7377 N   0  0  0  0  0  0  0  0  0  0  0  0
  1  4  1  0
  1 29  1  0
  2 13  1  0
  3  4  2  0
  3  8  1  0
  4  6  1  0
  5 12  1  0
  5 28  2  0
  5 31  1  0
  6 11  2  0
  7 12  1  0
  7 14  1  0
  7 30  1  6
  8 10  2  0
  9 15  2  0
  9 35  1  0
 10 11  1  0
 10 35  1  0
 11 34  1  0
 13 14  2  0
 13 17  1  0
 14 18  1  0
 15 19  1  0
 16 17  1  0
 16 32  2  0
 16 34  1  0
 17 22  2  0
 18 24  2  0
 19 21  2  0
 19 23  1  0
 20 21  1  0
 20 33  2  0
 20 35  1  0
 21 26  1  0
 22 24  1  0
 23 25  2  0
 25 27  1  0
 26 27  2  0
M  END
$$$$

     RDKit          3D

 39 42  0  0  0  0  0  0  0  0999 V2000
   21.3892   17.5950   28.4378 C   0  0  0  0  0  0  0  0  0  0  0  0
   21.3357   17.5590   29.8062 C   0  0  0  0  0  0  0  0  0  0  0  0
   21.5304   15.9762   40.0870 C   0  0  0  0  0  0  0  0  0  0  0  0
   21.8780   16.5271   41.3148 C   0  0  0  0  0  0  0  0  0  0  0  0
   22.1052   18.6052   27.7772 C   0  0  0  0  0  0  0  0  0  0  0  0
   21.9830   18.4900   30.5550 C   0  0  0  0  0  0  0  0  0  0  0  0
   22.2607   16.3298   38.9408 C   0  0  0  0  0  0  0  0  0  0  0  0
   22.4146   20.4610   36.1389 C   0  0  0  0  0  0  0  0  0  0  0  0
   22.5567   19.4234   37.2326 C   0  0  0  0  0  0  0  0  0  0  0  0
   22.6372   21.2186   31.5554 C   0  0  0  0  0  0  0  0  0  0  0  0
   22.6501   23.7821   33.3130 C   0  0  0  0  0  0  0  0  0  0  0  0
   22.9321   17.4213   41.4291 C   0  0  0  0  0  0  0  0  0  0  0  0
   22.7455   19.5790   28.5566 C   0  0  0  0  0  0  0  0  0  0  0  0
   22.7244   19.4774   29.9284 C   0  0  0  0  0  0  0  0  0  0  0  0
   22.9210   22.3779   33.7938 C   0  0  0  0  0  0  0  0  0  0  0  0
   23.3165   17.2027   39.0467 C   0  0  0  0  0  0  0  0  0  0  0  0
   23.4252   21.5678   32.6630 C   0  0  0  0  0  0  0  0  0  0  0  0
   23.6455   17.7555   40.2786 C   0  0  0  0  0  0  0  0  0  0  0  0
   23.9258   18.9305   37.3418 C   0  0  1  0  0  0  0  0  0  0  0  0
   24.1236   17.5487   37.8553 C   0  0  0  0  0  0  0  0  0  0  0  0
   24.6741   20.2890   31.2433 C   0  0  0  0  0  0  0  0  0  0  0  0
   24.6742   21.0344   32.4186 C   0  0  0  0  0  0  0  0  0  0  0  0
   25.8469   19.5376   30.7063 C   0  0  0  0  0  0  0  0  0  0  0  0
   25.9161   21.0869   33.2961 C   0  0  0  0  0  0  0  0  0  0  0  0
   26.0164   18.1785   30.9177 C   0  0  0  0  0  0  0  0  0  0  0  0
   26.0697   20.1517   36.5971 C   0  0  2  0  0  0  0  0  0  0  0  0
   26.7418   20.1310   35.2044 C   0  0  2  0  0  0  0  0  0  0  0  0
   26.8510   20.2402   30.0633 C   0  0  0  0  0  0  0  0  0  0  0  0
   27.1493   17.5350   30.3895 C   0  0  0  0  0  0  0  0  0  0  0  0
   27.0467   19.4346   37.5205 C   0  0  0  0  0  0  0  0  0  0  0  0
   28.1122   18.2378   29.6635 C   0  0  0  0  0  0  0  0  0  0  0  0
   27.9996   19.6134   29.5071 C   0  0  0  0  0  0  0  0  0  0  0  0
   21.6412   24.0416   32.6439 O   0  0  0  0  0  0  0  0  0  0  0  0
   27.6220   21.1763   35.0704 O   0  0  0  0  0  0  0  0  0  0  0  0
   23.3990   20.3951   30.7417 N   0  0  0  0  0  0  0  0  0  0  0  0
   23.6027   24.6595   33.5855 N   0  0  0  0  0  0  0  0  0  0  0  0
   24.8619   19.3857   36.5109 N   0  0  0  0  0  0  0  0  0  0  0  0
   25.9166   19.9264   34.0532 N   0  0  0  0  0  0  0  0  0  0  0  0
   23.4782   20.8721   27.8685 Cl  0  0  0  0  0  0  0  0  0  0  0  0
  1  2  2  0
  1  5  1  0
  2  6  1  0
  3  4  2  0
  3  7  1  0
  4 12  1  0
  5 13  2  0
  6 14  2  0
  7 16  2  0
  8  9  1  0
 19  9  1  6
 10 17  1  0
 10 35  1  0
 11 15  1  0
 11 33  2  0
 11 36  1  0
 12 18  2  0
 13 14  1  0
 13 39  1  0
 14 35  1  0
 15 17  1  0
 16 18  1  0
 16 20  1  0
 17 22  1  0
 19 20  1  0
 19 37  1  0
 21 22  2  0
 21 23  1  0
 21 35  1  0
 22 24  1  0
 23 25  2  0
 23 28  1  0
 24 38  1  0
 25 29  1  0
 26 27  1  0
 26 30  1  1
 26 37  1  0
 27 34  1  6
 27 38  1  0
 28 32  2  0
 29 31  2  0
 31 32  1  0
M  END
$$$$

     RDKit          3D

 19 21  0  0  0  0  0  0  0  0999 V2000
   22.4957   21.1577   36.0032 C   0  0  0  0  0  0  0  0  0  0  0  0
   22.7750   22.4312   36.5253 C   0  0  0  0  0  0  0  0  0  0  0  0
   23.4173   19.3003   34.3446 C   0  0  0  0  0  0  0  0  0  0  0  0
   23.4443   20.6051   35.0840 C   0  0  0  0  0  0  0  0  0  0  0  0
   23.9988   23.0919   36.2084 C   0  0  0  0  0  0  0  0  0  0  0  0
   24.6487   19.3281   33.5647 C   0  0  2  0  0  0  0  0  0  0  0  0
   24.9261   22.4815   35.2978 C   0  0  0  0  0  0  0  0  0  0  0  0
   25.0234   16.8933   32.9633 C   0  0  0  0  0  0  0  0  0  0  0  0
   25.2103   18.2779   32.6811 C   0  0  0  0  0  0  0  0  0  0  0  0
   25.3877   20.4704   33.9585 C   0  0  0  0  0  0  0  0  0  0  0  0
   25.6181   15.8513   32.1795 C   0  0  0  0  0  0  0  0  0  0  0  0
   26.0899   18.5976   31.6077 C   0  0  0  0  0  0  0  0  0  0  0  0
   26.4436   16.1913   31.0654 C   0  0  0  0  0  0  0  0  0  0  0  0
   26.6983   17.5712   30.7673 C   0  0  0  0  0  0  0  0  0  0  0  0
   24.2548   24.3110   36.7636 O   0  0  0  0  0  0  0  0  0  0  0  0
   26.5711   20.6818   33.7558 O   0  0  0  0  0  0  0  0  0  0  0  0
   26.9712   15.2035   30.2970 O   0  0  0  0  0  0  0  0  0  0  0  0
   24.6084   21.2407   34.7731 N   0  0  0  0  0  0  0  0  0  0  0  0
   21.3867   20.4718   36.3741 F   0  0  0  0  0  0  0  0  0  0  0  0
  1  2  2  0
  1  4  1  0
  1 19  1  0
  2  5  1  0
  3  4  1  0
  3  6  1  0
  4 18  1  0
  5  7  2  0
  5 15  1  0
  6  9  1  1
  6 10  1  0
  7 18  1  0
  8  9  2  0
  8 11  1  0
  9 12  1  0
 10 16  2  0
 10 18  1  0
 11 13  2  0
 12 14  2  0
 13 14  1  0
 13 17  1  0
M  END
$$$$
