
     RDKit          3D

 25 27  0  0  0  0  0  0  0  0999 V2000
   21.8807   22.1309   30.6469 C   0  0  0  0  0  0  0  0  0  0  0  0
   21.8786   23.2859   31.5627 C   0  0  0  0  0  0  0  0  0  0  0  0
   22.1977   20.1865   36.3076 C   0  0  0  0  0  0  0  0  0  0  0  0
   22.2787   21.6527   36.2482 C   0  0  0  0  0  0  0  0  0  0  0  0
   22.7959   23.1816   32.7577 C   0  0  0  0  0  0  0  0  0  0  0  0
   23.7574   20.0338   34.6285 C   0  0  1  0  0  0  0  0  0  0  0  0
   23.8083   21.4300   34.1075 C   0  0  0  0  0  0  0  0  0  0  0  0
   24.0149   17.9983   33.3260 C   0  0  0  0  0  0  0  0  0  0  0  0
   24.6400   19.1295   33.8910 C   0  0  0  0  0  0  0  0  0  0  0  0
   24.7458   17.1541   32.4975 C   0  0  0  0  0  0  0  0  0  0  0  0
   26.0881   17.3860   32.3277 C   0  0  0  0  0  0  0  0  0  0  0  0
   26.0099   19.3424   33.7790 C   0  0  0  0  0  0  0  0  0  0  0  0
   25.9927   21.7208   35.0446 C   0  0  0  0  0  0  0  0  0  0  0  0
   26.6122   19.3417   36.8789 C   0  0  0  0  0  0  0  0  0  0  0  0
   26.7251   18.4572   32.9181 C   0  0  0  0  0  0  0  0  0  0  0  0
   26.7867   20.4576   34.6092 C   0  0  1  0  0  0  0  0  0  0  0  0
   27.1470   18.6851   37.9921 C   0  0  0  0  0  0  0  0  0  0  0  0
   27.4064   19.7553   35.8295 C   0  0  0  0  0  0  0  0  0  0  0  0
   28.5233   18.5021   38.0693 C   0  0  0  0  0  0  0  0  0  0  0  0
   28.7788   19.5099   35.8971 C   0  0  0  0  0  0  0  0  0  0  0  0
   29.3360   18.9106   36.9937 C   0  0  0  0  0  0  0  0  0  0  0  0
   21.2023   19.5779   36.7350 O   0  0  0  0  0  0  0  0  0  0  0  0
   23.3654   19.5849   35.9122 O   0  0  0  0  0  0  0  0  0  0  0  0
   24.9875   22.0851   34.1392 O   0  0  0  0  0  0  0  0  0  0  0  0
   22.7375   21.9140   33.3896 N   0  0  0  0  0  0  0  0  0  0  0  0
  1  2  1  0
  2  5  1  0
  3  4  1  0
  3 22  2  0
  3 23  1  0
  5 25  1  0
  6  7  1  0
  6  9  1  0
  6 23  1  1
  7 24  1  0
  7 25  2  3
  8  9  1  0
  8 10  2  0
  9 12  2  0
 10 11  1  0
 11 15  2  0
 12 15  1  0
 12 16  1  0
 13 16  1  0
 13 24  1  0
 14 17  2  0
 14 18  1  0
 16 18  1  1
 17 19  1  0
 18 20  2  0
 19 21  2  0
 20 21  1  0
M  END
$$$$

     RDKit          3D

 30 34  0  0  0  0  0  0  0  0999 V2000
   21.6885   17.9240   29.9154 C   0  0  0  0  0  0  0  0  0  0  0  0
   21.9314   18.7546   30.9718 C   0  0  0  0  0  0  0  0  0  0  0  0
   22.0549   18.3566   28.6764 C   0  0  0  0  0  0  0  0  0  0  0  0
   22.1648   18.8032   37.2809 C   0  0  0  0  0  0  0  0  0  0  0  0
   22.0921   19.6337   36.1574 C   0  0  0  0  0  0  0  0  0  0  0  0
   22.6469   19.5984   28.4551 C   0  0  0  0  0  0  0  0  0  0  0  0
   22.4817   19.9980   30.7815 C   0  0  0  0  0  0  0  0  0  0  0  0
   22.8511   20.1681   33.1303 C   0  0  0  0  0  0  0  0  0  0  0  0
   22.8859   20.4228   29.5332 C   0  0  0  0  0  0  0  0  0  0  0  0
   22.7545   20.8073   31.9365 C   0  0  0  0  0  0  0  0  0  0  0  0
   22.9262   22.1870   31.9294 C   0  0  0  0  0  0  0  0  0  0  0  0
   23.1536   20.8306   34.3035 C   0  0  2  0  0  0  0  0  0  0  0  0
   23.4071   18.3401   37.7081 C   0  0  0  0  0  0  0  0  0  0  0  0
   23.2688   20.0052   35.4718 C   0  0  0  0  0  0  0  0  0  0  0  0
   23.2546   22.2144   34.2568 C   0  0  0  0  0  0  0  0  0  0  0  0
   24.5702   18.6778   37.0510 C   0  0  0  0  0  0  0  0  0  0  0  0
   24.5519   19.5004   35.9037 C   0  0  0  0  0  0  0  0  0  0  0  0
   25.6185   16.0753   32.3709 C   0  0  0  0  0  0  0  0  0  0  0  0
   25.5456   17.0474   33.3729 C   0  0  0  0  0  0  0  0  0  0  0  0
   25.9375   18.3534   33.0473 C   0  0  0  0  0  0  0  0  0  0  0  0
   25.8362   19.8418   35.2065 C   0  0  0  0  0  0  0  0  0  0  0  0
   25.9983   16.3605   31.0669 C   0  0  0  0  0  0  0  0  0  0  0  0
   26.0532   19.5346   33.8291 C   0  0  0  0  0  0  0  0  0  0  0  0
   26.3539   17.6831   30.7099 C   0  0  0  0  0  0  0  0  0  0  0  0
   26.2827   18.6729   31.7158 C   0  0  0  0  0  0  0  0  0  0  0  0
   26.5205   20.0551   31.6597 C   0  0  0  0  0  0  0  0  0  0  0  0
   26.6411   20.5756   35.8442 O   0  0  0  0  0  0  0  0  0  0  0  0
   23.1525   22.9085   33.0863 N   0  0  0  0  0  0  0  0  0  0  0  0
   26.4188   20.5175   32.9612 N   0  0  0  0  0  0  0  0  0  0  0  0
   21.7384   17.3208   27.3008 Cl  0  0  0  0  0  0  0  0  0  0  0  0
  1  2  2  0
  1  3  1  0
  2  7  1  0
  3  6  2  0
  3 30  1  0
  4  5  2  0
  4 13  1  0
  5 14  1  0
  6  9  1  0
  7  9  2  0
  7 10  1  0
  8 10  2  0
  8 12  1  0
 10 11  1  0
 11 28  1  0
 12 14  1  1
 12 15  1  0
 13 16  2  0
 14 17  2  0
 15 28  2  0
 16 17  1  0
 17 21  1  0
 18 19  1  0
 18 22  2  0
 19 20  1  0
 20 23  2  0
 20 25  1  0
 21 23  1  0
 21 27  2  0
 22 24  1  0
 23 29  1  0
 24 25  2  0
 25 26  1  0
 26 29  1  0
M  END
$$$$

     RDKit          3D

 45 50  0  0  0  0  0  0  0  0999 V2000
   20.5787   16.4414   42.7933 C   0  0  0  0  0  0  0  0  0  0  0  0
   21.6046   18.3713   29.7916 C   0  0  0  0  0  0  0  0  0  0  0  0
   21.5848   19.1060   30.9406 C   0  0  0  0  0  0  0  0  0  0  0  0
   22.4493   15.6849   39.3891 C   0  0  0  0  0  0  0  0  0  0  0  0
   22.2591   16.2604   40.6663 C   0  0  0  0  0  0  0  0  0  0  0  0
   22.2969   18.7884   28.6963 C   0  0  0  0  0  0  0  0  0  0  0  0
   22.2740   20.2923   30.9765 C   0  0  0  0  0  0  0  0  0  0  0  0
   22.8473   20.6500   33.2616 C   0  0  0  0  0  0  0  0  0  0  0  0
   23.0587   17.3206   41.0708 C   0  0  0  0  0  0  0  0  0  0  0  0
   23.1126   19.9344   28.7763 C   0  0  0  0  0  0  0  0  0  0  0  0
   23.0860   20.7055   29.9310 C   0  0  0  0  0  0  0  0  0  0  0  0
   23.4118   16.2302   38.5173 C   0  0  0  0  0  0  0  0  0  0  0  0
   24.0372   17.8230   40.1844 C   0  0  0  0  0  0  0  0  0  0  0  0
   24.2183   17.2971   38.8991 C   0  0  0  0  0  0  0  0  0  0  0  0
   24.3063   21.3585   35.1808 C   0  0  2  0  0  0  0  0  0  0  0  0
   24.2714   22.5592   36.1591 C   0  0  0  0  0  0  0  0  0  0  0  0
   25.0736   18.1226   36.6611 C   0  0  0  0  0  0  0  0  0  0  0  0
   25.4024   17.6346   33.7923 C   0  0  0  0  0  0  0  0  0  0  0  0
   25.2678   17.8881   38.0128 C   0  0  0  0  0  0  0  0  0  0  0  0
   25.9335   17.4588   32.4882 C   0  0  0  0  0  0  0  0  0  0  0  0
   25.7595   21.2534   34.6412 C   0  0  0  0  0  0  0  0  0  0  0  0
   26.0862   16.1812   31.8838 C   0  0  0  0  0  0  0  0  0  0  0  0
   26.1414   18.5679   35.8755 C   0  0  0  0  0  0  0  0  0  0  0  0
   26.1755   19.9895   32.4259 C   0  0  0  0  0  0  0  0  0  0  0  0
   26.1443   19.9998   33.9163 C   0  0  2  0  0  0  0  0  0  0  0  0
   26.3899   18.6455   31.8174 C   0  0  0  0  0  0  0  0  0  0  0  0
   26.7175   16.1263   30.6482 C   0  0  0  0  0  0  0  0  0  0  0  0
   27.1856   17.2492   30.0038 C   0  0  0  0  0  0  0  0  0  0  0  0
   26.9858   18.5003   30.5790 C   0  0  0  0  0  0  0  0  0  0  0  0
   27.4118   18.7914   36.4519 C   0  0  1  0  0  0  0  0  0  0  0  0
   27.5253   18.6108   37.8456 C   0  0  0  0  0  0  0  0  0  0  0  0
   28.6194   19.1025   35.7269 C   0  0  0  0  0  0  0  0  0  0  0  0
   28.7713   18.7828   38.4818 C   0  0  0  0  0  0  0  0  0  0  0  0
   29.9279   19.0311   37.7612 C   0  0  0  0  0  0  0  0  0  0  0  0
   29.8328   19.1912   36.3831 C   0  0  0  0  0  0  0  0  0  0  0  0
   21.2819   15.7222   41.4726 O   0  0  0  0  0  0  0  0  0  0  0  0
   22.3174   21.1182   32.1181 O   0  0  0  0  0  0  0  0  0  0  0  0
   22.9221   17.8935   42.6254 O   0  0  0  0  0  0  0  0  0  0  0  0
   22.7944   19.4575   33.5899 O   0  0  0  0  0  0  0  0  0  0  0  0
   23.6912   23.7626   35.5271 O   0  0  0  0  0  0  0  0  0  0  0  0
   23.3736   21.6443   34.0595 N   0  0  0  0  0  0  0  0  0  0  0  0
   25.9010   18.7445   34.5163 N   0  0  0  0  0  0  0  0  0  0  0  0
   26.4551   18.1846   38.5627 N   0  0  0  0  0  0  0  0  0  0  0  0
   21.0185   17.1125   29.7175 F   0  0  0  0  0  0  0  0  0  0  0  0
   27.9364   17.2018   28.5411 Cl  0  0  0  0  0  0  0  0  0  0  0  0
  1 36  1  0
  2  3  2  0
  2  6  1  0
  2 44  1  0
  3  7  1  0
  4  5  2  0
  4 12  1  0
  5  9  1  0
  5 36  1  0
  6 10  2  0
  7 11  2  0
  7 37  1  0
  8 37  1  0
  8 39  2  0
  8 41  1  0
  9 13  2  0
  9 38  1  0
 10 11  1  0
 12 14  2  0
 13 14  1  0
 14 19  1  0
 15 16  1  1
 15 21  1  0
 15 41  1  0
 16 40  1  0
 17 19  1  0
 17 23  2  0
 18 20  1  0
 18 42  1  0
 19 43  2  0
 20 22  1  0
 20 26  2  0
 25 21  1  6
 22 27  2  0
 23 30  1  0
 23 42  1  0
 24 25  1  0
 24 26  1  0
 25 42  1  0
 26 29  1  0
 27 28  1  0
 28 29  2  0
 28 45  1  0
 30 31  1  0
 30 32  1  6
 31 33  2  0
 31 43  1  0
 32 35  2  0
 33 34  1  0
 34 35  1  0
M  END
$$$$

     RDKit          3D

 26 28  0  0  0  0  0  0  0  0999 V2000
   22.3313   20.1438   36.1714 C   0  0  0  0  0  0  0  0  0  0  0  0
   22.2087   22.5422   36.1297 C   0  0  0  0  0  0  0  0  0  0  0  0
   22.6680   20.0174   31.7462 C   0  0  0  0  0  0  0  0  0  0  0  0
   22.7922   23.7600   36.0289 C   0  0  0  0  0  0  0  0  0  0  0  0
   23.1060   18.9880   36.1494 C   0  0  0  0  0  0  0  0  0  0  0  0
   23.0022   21.4014   36.1098 C   0  0  0  0  0  0  0  0  0  0  0  0
   23.4497   18.9150   31.4251 C   0  0  0  0  0  0  0  0  0  0  0  0
   23.2857   21.1635   32.2849 C   0  0  0  0  0  0  0  0  0  0  0  0
   24.1777   23.9042   35.8757 C   0  0  0  0  0  0  0  0  0  0  0  0
   24.3860   21.4895   35.9136 C   0  0  0  0  0  0  0  0  0  0  0  0
   24.4753   19.0733   35.9369 C   0  0  0  0  0  0  0  0  0  0  0  0
   24.6720   21.1812   32.4881 C   0  0  0  0  0  0  0  0  0  0  0  0
   24.8022   18.9654   31.5904 C   0  0  0  0  0  0  0  0  0  0  0  0
   24.9628   17.0496   34.5366 C   0  0  0  0  0  0  0  0  0  0  0  0
   25.1279   20.2946   35.8965 C   0  0  0  0  0  0  0  0  0  0  0  0
   24.9840   22.7641   35.7717 C   0  0  0  0  0  0  0  0  0  0  0  0
   25.2755   17.8129   35.8247 C   0  0  0  0  0  0  0  0  0  0  0  0
   25.3924   20.0490   32.1927 C   0  0  0  0  0  0  0  0  0  0  0  0
   25.5114   16.6511   32.1903 C   0  0  0  0  0  0  0  0  0  0  0  0
   25.6219   17.7594   31.1156 C   0  0  0  0  0  0  0  0  0  0  0  0
   20.6748   24.8827   35.1448 O   0  0  0  0  0  0  0  0  0  0  0  0
   21.2056   25.1754   37.5300 O   0  0  0  0  0  0  0  0  0  0  0  0
   26.8948   18.0486   33.6148 O   0  0  0  0  0  0  0  0  0  0  0  0
   22.5248   26.4310   35.8013 N   0  0  0  0  0  0  0  0  0  0  0  0
   25.8306   17.2413   33.4865 N   0  0  0  0  0  0  0  0  0  0  0  0
   21.7154   25.0698   36.1344 S   0  0  0  0  0  0  0  0  0  0  0  0
  1  5  2  0
  1  6  1  0
  2  4  1  0
  2  6  2  0
  3  7  2  0
  3  8  1  0
  4  9  2  0
  4 26  1  0
  5 11  1  0
  6 10  1  0
  7 13  1  0
  8 12  2  0
  9 16  1  0
 10 15  1  0
 10 16  2  0
 11 15  2  0
 11 17  1  0
 12 18  1  0
 13 18  2  0
 13 20  1  0
 14 17  1  0
 14 25  1  0
 19 20  1  0
 19 25  1  0
 21 26  1  0
 22 26  1  0
 23 25  1  0
 24 26  1  0
M  END
$$$$

     RDKit          3D

 16 17  0  0  0  0  0  0  0  0999 V2000
   23.2037   21.7426   35.8045 C   0  0  0  0  0  0  0  0  0  0  0  0
   23.4951   20.5997   35.0544 C   0  0  0  0  0  0  0  0  0  0  0  0
   24.1712   22.7867   35.9760 C   0  0  0  0  0  0  0  0  0  0  0  0
   24.8999   17.9467   34.0822 C   0  0  0  0  0  0  0  0  0  0  0  0
   24.7926   20.4494   34.4459 C   0  0  0  0  0  0  0  0  0  0  0  0
   25.1901   16.8011   33.3906 C   0  0  0  0  0  0  0  0  0  0  0  0
   25.1895   19.2390   33.5776 C   0  0  0  0  0  0  0  0  0  0  0  0
   25.4194   22.5685   35.4870 C   0  0  0  0  0  0  0  0  0  0  0  0
   25.7997   16.8912   32.1473 C   0  0  0  0  0  0  0  0  0  0  0  0
   25.7716   19.3319   32.3009 C   0  0  0  0  0  0  0  0  0  0  0  0
   25.7308   21.4747   34.7108 C   0  0  0  0  0  0  0  0  0  0  0  0
   26.1060   18.1635   31.5912 C   0  0  0  0  0  0  0  0  0  0  0  0
   26.6519   18.1888   30.3964 O   0  0  0  0  0  0  0  0  0  0  0  0
   22.2216   19.4429   34.9643 Cl  0  0  0  0  0  0  0  0  0  0  0  0
   23.4868   24.2195   36.6794 Cl  0  0  0  0  0  0  0  0  0  0  0  0
   26.2929   20.8088   31.5519 Cl  0  0  0  0  0  0  0  0  0  0  0  0
  1  2  2  0
  1  3  1  0
  2  5  1  0
  2 14  1  0
  3  8  2  0
  3 15  1  0
  4  6  2  0
  4  7  1  0
  5  7  1  0
  5 11  2  0
  6  9  1  0
  7 10  1  0
  8 11  1  0
  9 12  1  0
 10 12  2  0
 10 16  1  0
 12 13  1  0
M  END
$$$$

     RDKit          3D

 27 29  0  0  0  0  0  0  0  0999 V2000
   21.7855   20.0134   28.8946 C   0  0  0  0  0  0  0  0  0  0  0  0
   22.1990   20.7011   36.6471 C   0  0  0  0  0  0  0  0  0  0  0  0
   22.2683   19.2185   31.6154 C   0  0  0  0  0  0  0  0  0  0  0  0
   22.6059   17.9274   37.7652 C   0  0  0  0  0  0  0  0  0  0  0  0
   22.6590   21.4632   30.0294 C   0  0  0  0  0  0  0  0  0  0  0  0
   22.8452   16.7840   38.5084 C   0  0  0  0  0  0  0  0  0  0  0  0
   22.8688   19.5725   33.9535 C   0  0  0  0  0  0  0  0  0  0  0  0
   23.6403   18.5703   37.1249 C   0  0  0  0  0  0  0  0  0  0  0  0
   23.6684   19.2080   30.0715 C   0  0  0  0  0  0  0  0  0  0  0  0
   23.4873   19.9359   36.4253 C   0  0  1  0  0  0  0  0  0  0  0  0
   24.1298   16.3389   38.6813 C   0  0  0  0  0  0  0  0  0  0  0  0
   24.4691   19.7225   32.2949 C   0  0  0  0  0  0  0  0  0  0  0  0
   24.9525   18.0499   37.2232 C   0  0  0  0  0  0  0  0  0  0  0  0
   24.8161   19.5205   30.9544 C   0  0  0  0  0  0  0  0  0  0  0  0
   25.1870   16.9351   38.0348 C   0  0  0  0  0  0  0  0  0  0  0  0
   25.0563   20.3524   34.5638 C   0  0  0  0  0  0  0  0  0  0  0  0
   25.4418   20.1328   33.2156 C   0  0  0  0  0  0  0  0  0  0  0  0
   26.1257   19.7174   30.5684 C   0  0  0  0  0  0  0  0  0  0  0  0
   26.6323   19.4072   29.1407 C   0  0  0  0  0  0  0  0  0  0  0  0
   26.7457   20.3749   32.7362 C   0  0  0  0  0  0  0  0  0  0  0  0
   27.0866   20.1593   31.4465 C   0  0  0  0  0  0  0  0  0  0  0  0
   21.1095   20.1813   36.7642 O   0  0  0  0  0  0  0  0  0  0  0  0
   22.3504   21.9770   36.7556 O   0  0  0  0  0  0  0  0  0  0  0  0
   25.8993   20.7685   35.3951 O   0  0  0  0  0  0  0  0  0  0  0  0
   23.1943   19.4726   32.6680 N   0  0  0  0  0  0  0  0  0  0  0  0
   23.0298   20.2891   29.4393 N   0  0  0  0  0  0  0  0  0  0  0  0
   23.8085   19.9356   34.9235 N   0  0  0  0  0  0  0  0  0  0  0  0
  1 26  1  0
  2 10  1  0
  2 22  2  0
  2 23  1  0
  3 25  1  0
  4  6  2  0
  4  8  1  0
  5 26  1  0
  6 11  1  0
  7 25  1  0
  7 27  1  0
  8 10  1  0
  8 13  2  0
  9 14  1  0
  9 26  1  0
 10 27  1  6
 11 15  2  0
 12 14  1  0
 12 17  2  0
 12 25  1  0
 13 15  1  0
 14 18  2  0
 16 17  1  0
 16 24  2  0
 16 27  1  0
 17 20  1  0
 18 19  1  0
 18 21  1  0
 20 21  2  0
M  END
$$$$

     RDKit          3D

 23 24  0  0  0  0  0  0  0  0999 V2000
   22.0020   21.9973   31.4696 C   0  0  0  0  0  0  0  0  0  0  0  0
   22.8832   20.2636   34.3933 C   0  0  0  0  0  0  0  0  0  0  0  0
   23.2231   21.4006   32.1680 C   0  0  2  0  0  0  0  0  0  0  0  0
   23.6158   21.3453   35.1853 C   0  0  0  0  0  0  0  0  0  0  0  0
   23.8979   20.6045   31.0164 C   0  0  0  0  0  0  0  0  0  0  0  0
   25.1951   17.6572   33.9161 C   0  0  0  0  0  0  0  0  0  0  0  0
   25.1920   21.1666   35.0639 C   0  0  0  0  0  0  0  0  0  0  0  0
   25.3637   16.9268   32.7452 C   0  0  0  0  0  0  0  0  0  0  0  0
   25.4857   19.6722   35.3128 C   0  0  1  0  0  0  0  0  0  0  0  0
   25.7223   18.4970   37.5108 C   0  0  0  0  0  0  0  0  0  0  0  0
   25.8154   18.8831   34.0997 C   0  0  0  0  0  0  0  0  0  0  0  0
   26.2088   17.4367   31.7478 C   0  0  0  0  0  0  0  0  0  0  0  0
   26.4511   17.9133   38.5392 C   0  0  0  0  0  0  0  0  0  0  0  0
   26.3540   19.1624   36.4310 C   0  0  0  0  0  0  0  0  0  0  0  0
   26.6814   19.3427   33.1105 C   0  0  0  0  0  0  0  0  0  0  0  0
   26.8766   18.6436   31.9473 C   0  0  0  0  0  0  0  0  0  0  0  0
   27.8642   17.9464   38.5345 C   0  0  0  0  0  0  0  0  0  0  0  0
   27.7370   19.2015   36.4194 C   0  0  0  0  0  0  0  0  0  0  0  0
   28.5045   18.6566   37.4247 C   0  0  0  0  0  0  0  0  0  0  0  0
   21.1840   21.0072   30.9844 O   0  0  0  0  0  0  0  0  0  0  0  0
   22.4931   19.2576   35.0225 O   0  0  0  0  0  0  0  0  0  0  0  0
   26.4288   16.7393   30.5830 O   0  0  0  0  0  0  0  0  0  0  0  0
   22.7993   20.3817   33.1545 N   0  0  0  0  0  0  0  0  0  0  0  0
  1  3  1  0
  1 20  1  0
  2  4  1  0
  2 21  2  0
  2 23  1  0
  3  5  1  6
  3 23  1  0
  4  7  1  0
  6  8  2  0
  6 11  1  0
  9  7  1  6
  8 12  1  0
  9 11  1  0
  9 14  1  0
 10 13  2  0
 10 14  1  0
 11 15  2  0
 12 16  2  0
 12 22  1  0
 13 17  1  0
 14 18  2  0
 15 16  1  0
 17 19  2  0
 18 19  1  0
M  END
$$$$

     RDKit          3D

 23 25  0  0  0  0  0  0  0  0999 V2000
   21.6279   19.2210   36.9875 C   0  0  0  0  0  0  0  0  0  0  0  0
   22.3949   19.2691   34.0489 C   0  0  0  0  0  0  0  0  0  0  0  0
   22.4276   19.7378   32.7234 C   0  0  0  0  0  0  0  0  0  0  0  0
   22.9298   19.7062   36.5076 C   0  0  2  0  0  0  0  0  0  0  0  0
   22.8584   20.0751   35.0638 C   0  0  0  0  0  0  0  0  0  0  0  0
   22.8437   21.0358   32.4643 C   0  0  0  0  0  0  0  0  0  0  0  0
   23.2525   21.3555   34.8004 C   0  0  0  0  0  0  0  0  0  0  0  0
   23.2327   21.8570   33.5305 C   0  0  0  0  0  0  0  0  0  0  0  0
   25.0990   17.3534   32.9541 C   0  0  0  0  0  0  0  0  0  0  0  0
   25.2193   17.5979   34.3133 C   0  0  0  0  0  0  0  0  0  0  0  0
   25.2716   18.2525   30.6886 C   0  0  0  0  0  0  0  0  0  0  0  0
   25.4998   18.3318   32.0418 C   0  0  0  0  0  0  0  0  0  0  0  0
   25.5550   19.3027   29.8836 C   0  0  0  0  0  0  0  0  0  0  0  0
   25.8036   18.7770   34.7230 C   0  0  0  0  0  0  0  0  0  0  0  0
   26.1534   19.4626   32.5494 C   0  0  0  0  0  0  0  0  0  0  0  0
   26.2377   20.4088   30.3412 C   0  0  0  0  0  0  0  0  0  0  0  0
   26.5744   20.4678   31.6760 C   0  0  0  0  0  0  0  0  0  0  0  0
   25.9428   20.6911   36.4170 O   0  0  0  0  0  0  0  0  0  0  0  0
   26.5912   18.4869   37.1953 O   0  0  0  0  0  0  0  0  0  0  0  0
   24.0839   18.9924   36.8965 N   0  0  0  0  0  0  0  0  0  0  0  0
   26.3200   19.6555   33.8733 N   0  0  0  0  0  0  0  0  0  0  0  0
   25.7138   19.2910   36.4017 S   0  0  0  0  0  0  0  0  0  0  0  0
   23.5091   23.4442   33.2467 Cl  0  0  0  0  0  0  0  0  0  0  0  0
  4  1  1  6
  2  3  2  0
  2  5  1  0
  3  6  1  0
  4  5  1  0
  4 20  1  0
  5  7  2  0
  6  8  2  0
  7  8  1  0
  8 23  1  0
  9 10  1  0
  9 12  2  0
 10 14  1  0
 11 12  1  0
 11 13  2  0
 12 15  1  0
 13 16  1  0
 14 21  2  0
 14 22  1  0
 15 17  2  0
 15 21  1  0
 16 17  1  0
 18 22  1  0
 19 22  1  0
 20 22  1  0
M  END
$$$$

     RDKit          3D

 24 26  0  0  0  0  0  0  0  0999 V2000
   21.6201   19.6538   31.0669 C   0  0  0  0  0  0  0  0  0  0  0  0
   22.3804   19.3771   37.0988 C   0  0  0  0  0  0  0  0  0  0  0  0
   22.3250   20.7754   30.5654 C   0  0  0  0  0  0  0  0  0  0  0  0
   22.3224   22.0360   31.3539 C   0  0  0  0  0  0  0  0  0  0  0  0
   22.6384   20.9346   29.1165 C   0  0  0  0  0  0  0  0  0  0  0  0
   22.6847   21.5545   36.2952 C   0  0  0  0  0  0  0  0  0  0  0  0
   22.7223   24.2873   32.7642 C   0  0  0  0  0  0  0  0  0  0  0  0
   23.1380   21.9606   32.4832 C   0  0  0  0  0  0  0  0  0  0  0  0
   23.4352   23.1048   33.2108 C   0  0  0  0  0  0  0  0  0  0  0  0
   23.7315   19.0457   36.9513 C   0  0  0  0  0  0  0  0  0  0  0  0
   24.0865   21.2801   36.0628 C   0  0  0  0  0  0  0  0  0  0  0  0
   24.3002   23.0131   34.3732 C   0  0  0  0  0  0  0  0  0  0  0  0
   24.6213   20.0039   36.4991 C   0  0  0  0  0  0  0  0  0  0  0  0
   26.0833   19.6819   36.5338 C   0  0  0  0  0  0  0  0  0  0  0  0
   26.6656   18.9425   37.5882 C   0  0  0  0  0  0  0  0  0  0  0  0
   26.8891   20.1328   35.4586 C   0  0  0  0  0  0  0  0  0  0  0  0
   28.0469   18.6683   37.6025 C   0  0  0  0  0  0  0  0  0  0  0  0
   28.2419   19.8134   35.4576 C   0  0  0  0  0  0  0  0  0  0  0  0
   28.8058   19.1067   36.5218 C   0  0  0  0  0  0  0  0  0  0  0  0
   21.9872   24.3091   31.6589 O   0  0  0  0  0  0  0  0  0  0  0  0
   21.9233   20.5928   36.8376 N   0  0  0  0  0  0  0  0  0  0  0  0
   21.7911   23.2313   30.8893 N   0  0  0  0  0  0  0  0  0  0  0  0
   24.7909   22.1987   35.3165 N   0  0  0  0  0  0  0  0  0  0  0  0
   30.5020   18.8891   36.4622 Cl  0  0  0  0  0  0  0  0  0  0  0  0
  1  3  1  0
  2 10  2  0
  2 21  1  0
  3  4  1  0
  3  5  1  0
  4  8  1  0
  4 22  2  0
  6 11  1  0
  6 21  2  0
  7  9  2  0
  7 20  1  0
  8  9  1  0
  9 12  1  0
 10 13  1  0
 11 13  2  0
 11 23  1  0
 12 23  1  0
 13 14  1  0
 14 15  2  0
 14 16  1  0
 15 17  1  0
 16 18  2  0
 17 19  2  0
 18 19  1  0
 19 24  1  0
 20 22  1  0
M  END
$$$$

     RDKit          3D

 37 41  0  0  0  0  0  0  0  0999 V2000
   21.1284   20.2810   29.8846 C   0  0  0  0  0  0  0  0  0  0  0  0
   21.3365   15.7561   42.4981 C   0  0  0  0  0  0  0  0  0  0  0  0
   21.8987   15.9226   40.0903 C   0  0  0  0  0  0  0  0  0  0  0  0
   22.1315   18.6694   37.4793 C   0  0  0  0  0  0  0  0  0  0  0  0
   21.9591   19.4326   36.3206 C   0  0  0  0  0  0  0  0  0  0  0  0
   22.3450   18.4285   30.9663 C   0  0  0  0  0  0  0  0  0  0  0  0
   22.3887   19.9294   30.6930 C   0  0  0  0  0  0  0  0  0  0  0  0
   22.6612   20.0323   33.2231 C   0  0  0  0  0  0  0  0  0  0  0  0
   22.5100   20.7047   32.0363 C   0  0  0  0  0  0  0  0  0  0  0  0
   22.5141   22.1544   32.0831 C   0  0  0  0  0  0  0  0  0  0  0  0
   22.7264   17.6499   41.6692 C   0  0  0  0  0  0  0  0  0  0  0  0
   22.8147   18.4778   40.3955 C   0  0  0  0  0  0  0  0  0  0  0  0
   22.8549   20.6987   34.4392 C   0  0  0  0  0  0  0  0  0  0  0  0
   22.8909   22.0972   34.4672 C   0  0  0  0  0  0  0  0  0  0  0  0
   22.7102   22.8342   33.2768 C   0  0  0  0  0  0  0  0  0  0  0  0
   23.0530   16.1927   39.1202 C   0  0  0  0  0  0  0  0  0  0  0  0
   23.0926   19.9126   35.6412 C   0  0  0  0  0  0  0  0  0  0  0  0
   23.4148   18.4364   37.9966 C   0  0  0  0  0  0  0  0  0  0  0  0
   23.5572   17.6705   39.3016 C   0  0  0  0  0  0  0  0  0  0  0  0
   23.6321   20.1914   29.8055 C   0  0  0  0  0  0  0  0  0  0  0  0
   24.4114   19.6214   36.0874 C   0  0  0  0  0  0  0  0  0  0  0  0
   24.5382   18.8919   37.2932 C   0  0  0  0  0  0  0  0  0  0  0  0
   25.1306   17.0952   33.6871 C   0  0  0  0  0  0  0  0  0  0  0  0
   25.2613   15.9704   32.8564 C   0  0  0  0  0  0  0  0  0  0  0  0
   25.6635   18.3192   33.2481 C   0  0  0  0  0  0  0  0  0  0  0  0
   25.6592   20.0236   35.2932 C   0  0  0  0  0  0  0  0  0  0  0  0
   25.8931   16.0578   31.6194 C   0  0  0  0  0  0  0  0  0  0  0  0
   25.8461   19.6406   33.8795 C   0  0  0  0  0  0  0  0  0  0  0  0
   26.3921   17.2769   31.1587 C   0  0  0  0  0  0  0  0  0  0  0  0
   26.2432   18.4010   31.9871 C   0  0  0  0  0  0  0  0  0  0  0  0
   26.6480   19.7528   31.7943 C   0  0  0  0  0  0  0  0  0  0  0  0
   27.2174   20.2445   30.5278 C   0  0  0  0  0  0  0  0  0  0  0  0
   22.6995   24.1580   33.3598 O   0  0  0  0  0  0  0  0  0  0  0  0
   23.0808   22.7372   35.6448 O   0  0  0  0  0  0  0  0  0  0  0  0
   26.4869   20.8484   35.7337 O   0  0  0  0  0  0  0  0  0  0  0  0
   22.2149   16.3359   41.4613 N   0  0  0  0  0  0  0  0  0  0  0  0
   26.3734   20.4353   32.9185 N   0  0  0  0  0  0  0  0  0  0  0  0
  1  7  1  0
  2 36  1  0
  3 16  1  0
  3 36  1  0
  4  5  2  0
  4 18  1  0
  5 17  1  0
  6  7  1  0
  7  9  1  0
  7 20  1  0
  8  9  2  0
  8 13  1  0
  9 10  1  0
 10 15  2  0
 11 12  1  0
 11 36  1  0
 12 19  1  0
 13 14  2  0
 13 17  1  0
 14 15  1  0
 14 34  1  0
 15 33  1  0
 16 19  1  0
 17 21  2  0
 18 19  1  0
 18 22  2  0
 21 22  1  0
 21 26  1  0
 23 24  1  0
 23 25  1  0
 24 27  2  0
 25 28  2  0
 25 30  1  0
 26 28  1  0
 26 35  2  0
 27 29  1  0
 28 37  1  0
 29 30  1  0
 30 31  2  0
 31 32  1  0
 31 37  1  0
M  END
$$$$

     RDKit          3D

 31 34  0  0  0  0  0  0  0  0999 V2000
   21.7529   19.2349   30.6000 C   0  0  0  0  0  0  0  0  0  0  0  0
   21.9495   19.7384   31.8465 C   0  0  0  0  0  0  0  0  0  0  0  0
   22.0981   23.7091   35.4214 C   0  0  0  0  0  0  0  0  0  0  0  0
   22.6967   18.4490   30.0164 C   0  0  0  0  0  0  0  0  0  0  0  0
   22.5582   24.0735   36.6737 C   0  0  0  0  0  0  0  0  0  0  0  0
   22.9057   23.0458   34.5168 C   0  0  0  0  0  0  0  0  0  0  0  0
   23.0968   16.2790   40.1258 C   0  0  0  0  0  0  0  0  0  0  0  0
   23.0926   19.4483   32.5424 C   0  0  0  0  0  0  0  0  0  0  0  0
   23.3418   15.9209   38.7829 C   0  0  0  0  0  0  0  0  0  0  0  0
   23.7297   17.3937   40.6731 C   0  0  0  0  0  0  0  0  0  0  0  0
   23.8984   18.2419   30.6599 C   0  0  0  0  0  0  0  0  0  0  0  0
   23.9087   23.9162   36.9629 C   0  0  0  0  0  0  0  0  0  0  0  0
   24.1438   18.7685   31.9359 C   0  0  0  0  0  0  0  0  0  0  0  0
   24.2024   22.7566   34.8503 C   0  0  0  0  0  0  0  0  0  0  0  0
   24.3418   16.6515   38.1081 C   0  0  0  0  0  0  0  0  0  0  0  0
   24.6939   16.2794   36.6739 C   0  0  0  0  0  0  0  0  0  0  0  0
   24.7220   18.0776   39.9902 C   0  0  0  0  0  0  0  0  0  0  0  0
   24.7351   23.2097   36.0531 C   0  0  0  0  0  0  0  0  0  0  0  0
   25.1613   17.3081   34.5817 C   0  0  0  0  0  0  0  0  0  0  0  0
   25.0352   17.6862   38.7163 C   0  0  0  0  0  0  0  0  0  0  0  0
   25.3413   19.6893   34.8610 C   0  0  2  0  0  0  0  0  0  0  0  0
   25.4614   18.5552   33.9756 C   0  0  2  0  0  0  0  0  0  0  0  0
   23.4711   17.7974   41.9432 O   0  0  0  0  0  0  0  0  0  0  0  0
   24.9922   16.3143   33.9374 O   0  0  0  0  0  0  0  0  0  0  0  0
   27.1104   21.0750   34.3314 O   0  0  0  0  0  0  0  0  0  0  0  0
   24.9413   21.9151   33.9925 N   0  0  0  0  0  0  0  0  0  0  0  0
   25.0597   17.4189   35.8864 N   0  0  0  0  0  0  0  0  0  0  0  0
   25.3026   18.5832   32.5394 N   0  0  0  0  0  0  0  0  0  0  0  0
   25.7919   20.9532   34.4606 N   0  0  0  0  0  0  0  0  0  0  0  0
   25.0208   19.0675   36.1868 S   0  0  0  0  0  0  0  0  0  0  0  0
   22.2096   17.9221   28.3016 Cl  0  0  0  0  0  0  0  0  0  0  0  0
  1  2  2  0
  1  4  1  0
  2  8  1  0
  3  5  2  0
  3  6  1  0
  4 11  2  0
  4 31  1  0
  5 12  1  0
  6 14  2  0
  7  9  2  0
  7 10  1  0
  8 13  2  0
  9 15  1  0
 10 17  2  0
 10 23  1  0
 11 13  1  0
 12 18  2  0
 13 28  1  0
 14 18  1  0
 14 26  1  0
 15 16  1  0
 15 20  2  0
 16 27  1  0
 17 20  1  0
 19 22  1  0
 19 24  2  0
 19 27  1  0
 21 22  1  0
 21 29  1  1
 21 30  1  0
 22 28  1  6
 25 29  1  0
 26 29  1  0
 27 30  1  0
M  END
$$$$

     RDKit          3D

 23 24  0  0  0  0  0  0  0  0999 V2000
   21.9446   21.6393   29.9655 C   0  0  0  0  0  0  0  0  0  0  0  0
   22.3687   20.8282   31.1468 C   0  0  0  0  0  0  0  0  0  0  0  0
   22.2708   21.2962   32.4367 C   0  0  0  0  0  0  0  0  0  0  0  0
   22.6969   20.5519   33.5387 C   0  0  1  0  0  0  0  0  0  0  0  0
   22.4749   21.0410   34.9214 C   0  0  0  0  0  0  0  0  0  0  0  0
   22.8422   19.4999   30.9726 C   0  0  0  0  0  0  0  0  0  0  0  0
   23.2894   18.7682   32.0625 C   0  0  0  0  0  0  0  0  0  0  0  0
   23.2220   19.2723   33.3156 C   0  0  0  0  0  0  0  0  0  0  0  0
   24.8031   19.4495   36.8386 C   0  0  0  0  0  0  0  0  0  0  0  0
   24.7557   20.5754   35.9562 C   0  0  0  0  0  0  0  0  0  0  0  0
   25.9034   20.9512   35.2616 C   0  0  0  0  0  0  0  0  0  0  0  0
   26.1639   17.6827   38.0365 C   0  0  0  0  0  0  0  0  0  0  0  0
   26.0394   18.8052   37.0543 C   0  0  0  0  0  0  0  0  0  0  0  0
   27.1576   19.2796   36.4006 C   0  0  0  0  0  0  0  0  0  0  0  0
   27.1151   20.3025   35.4615 C   0  0  0  0  0  0  0  0  0  0  0  0
   21.4015   21.1194   28.9906 O   0  0  0  0  0  0  0  0  0  0  0  0
   22.1297   22.9472   30.0619 O   0  0  0  0  0  0  0  0  0  0  0  0
   22.4237   23.4666   36.5117 O   0  0  0  0  0  0  0  0  0  0  0  0
   23.7207   18.9361   37.4154 O   0  0  0  0  0  0  0  0  0  0  0  0
   23.7964   23.5573   34.6168 O   0  0  0  0  0  0  0  0  0  0  0  0
   24.7672   23.4079   36.7728 O   0  0  0  0  0  0  0  0  0  0  0  0
   23.5764   21.3863   35.8050 N   0  0  0  0  0  0  0  0  0  0  0  0
   23.6513   22.9995   35.9462 S   0  0  0  0  0  0  0  0  0  0  0  0
  1  2  1  0
  1 16  2  0
  1 17  1  0
  2  3  2  0
  2  6  1  0
  3  4  1  0
  4  5  1  1
  4  8  1  0
  5 22  1  0
  6  7  1  0
  7  8  2  0
  9 10  2  0
  9 13  1  0
  9 19  1  0
 10 11  1  0
 10 22  1  0
 11 15  2  0
 12 13  1  0
 13 14  2  0
 14 15  1  0
 18 23  1  0
 20 23  1  0
 21 23  1  0
 22 23  1  0
M  END
$$$$

     RDKit          3D

 30 32  0  0  0  0  0  0  0  0999 V2000
   22.1801   20.1960   36.0791 C   0  0  0  0  0  0  0  0  0  0  0  0
   22.1297   22.5863   35.9285 C   0  0  0  0  0  0  0  0  0  0  0  0
   22.0551   22.7499   32.2476 C   0  0  0  0  0  0  0  0  0  0  0  0
   21.9613   24.9443   35.2642 C   0  0  0  0  0  0  0  0  0  0  0  0
   22.4055   18.6933   29.6517 C   0  0  0  0  0  0  0  0  0  0  0  0
   22.8744   18.9969   35.9257 C   0  0  0  0  0  0  0  0  0  0  0  0
   22.8607   21.4079   35.9412 C   0  0  0  0  0  0  0  0  0  0  0  0
   22.9054   21.6455   31.8620 C   0  0  0  0  0  0  0  0  0  0  0  0
   22.7907   23.7624   35.6159 C   0  0  0  0  0  0  0  0  0  0  0  0
   23.0415   19.6521   30.6420 C   0  0  0  0  0  0  0  0  0  0  0  0
   24.2081   23.8038   35.4806 C   0  0  0  0  0  0  0  0  0  0  0  0
   24.3190   17.6389   33.6271 C   0  0  0  0  0  0  0  0  0  0  0  0
   24.2345   19.0083   35.6726 C   0  0  0  0  0  0  0  0  0  0  0  0
   24.3512   19.4280   31.0996 C   0  0  2  0  0  0  0  0  0  0  0  0
   24.2793   21.4133   35.7781 C   0  0  0  0  0  0  0  0  0  0  0  0
   24.2308   21.5307   32.2905 C   0  0  0  0  0  0  0  0  0  0  0  0
   24.9512   17.6857   35.2540 C   0  0  0  0  0  0  0  0  0  0  0  0
   24.9615   22.6524   35.6266 C   0  0  0  0  0  0  0  0  0  0  0  0
   24.9764   20.4107   31.9193 C   0  0  0  0  0  0  0  0  0  0  0  0
   24.9673   20.1841   35.6653 C   0  0  0  0  0  0  0  0  0  0  0  0
   25.2074   16.9379   32.7652 C   0  0  2  0  0  0  0  0  0  0  0  0
   25.4381   17.2100   31.3319 C   0  0  0  0  0  0  0  0  0  0  0  0
   25.6007   15.5169   33.1116 C   0  0  0  0  0  0  0  0  0  0  0  0
   20.7217   24.6387   34.9824 O   0  0  0  0  0  0  0  0  0  0  0  0
   22.5854   25.9869   34.8384 O   0  0  0  0  0  0  0  0  0  0  0  0
   25.0674   18.3627   30.6790 O   0  0  0  0  0  0  0  0  0  0  0  0
   26.1804   20.2160   32.3130 O   0  0  0  0  0  0  0  0  0  0  0  0
   26.6111   16.8180   30.8144 O   0  0  0  0  0  0  0  0  0  0  0  0
   22.3524   20.6922   31.0591 N   0  0  0  0  0  0  0  0  0  0  0  0
   21.0875   24.8330   33.7602 S   0  0  0  0  0  0  0  0  0  0  0  0
  1  6  2  0
  1  7  1  0
  2  7  2  0
  2  9  1  0
  3  8  1  0
  4  9  1  0
  4 24  1  0
  4 25  2  0
  5 10  1  0
  6 13  1  0
  7 15  1  0
  8 16  2  0
  8 29  1  0
  9 11  2  0
 10 14  1  0
 10 29  2  0
 11 18  1  0
 12 17  1  0
 12 21  1  0
 13 17  1  0
 13 20  2  0
 14 19  1  0
 14 26  1  6
 15 18  2  0
 15 20  1  0
 16 19  1  0
 19 27  2  0
 21 22  1  0
 21 23  1  6
 22 26  1  0
 22 28  2  0
 24 30  1  0
M  END
$$$$

     RDKit          3D

 24 26  0  0  0  0  0  0  0  0999 V2000
   22.7361   21.4257   35.9875 C   0  0  0  0  0  0  0  0  0  0  0  0
   22.9562   24.9979   36.7182 C   0  0  0  0  0  0  0  0  0  0  0  0
   23.0331   25.9009   37.9470 C   0  0  0  0  0  0  0  0  0  0  0  0
   23.2069   20.3376   35.1796 C   0  0  0  0  0  0  0  0  0  0  0  0
   23.4231   22.6496   36.0269 C   0  0  0  0  0  0  0  0  0  0  0  0
   23.3932   27.3410   37.6813 C   0  0  0  0  0  0  0  0  0  0  0  0
   24.3054   17.9746   33.7288 C   0  0  0  0  0  0  0  0  0  0  0  0
   24.3622   20.4921   34.3884 C   0  0  0  0  0  0  0  0  0  0  0  0
   24.5455   22.8188   35.1576 C   0  0  0  0  0  0  0  0  0  0  0  0
   24.7515   16.9091   32.9103 C   0  0  0  0  0  0  0  0  0  0  0  0
   24.9146   19.2928   33.6396 C   0  0  0  0  0  0  0  0  0  0  0  0
   24.9958   21.7249   34.3369 C   0  0  0  0  0  0  0  0  0  0  0  0
   25.7797   17.1253   31.9238 C   0  0  0  0  0  0  0  0  0  0  0  0
   26.1990   16.1443   30.9879 C   0  0  0  0  0  0  0  0  0  0  0  0
   25.9923   19.4520   32.7806 C   0  0  0  0  0  0  0  0  0  0  0  0
   26.4266   18.4341   31.9072 C   0  0  0  0  0  0  0  0  0  0  0  0
   27.1999   16.4660   30.0762 C   0  0  0  0  0  0  0  0  0  0  0  0
   27.4369   18.6994   30.9598 C   0  0  0  0  0  0  0  0  0  0  0  0
   27.7597   17.7105   30.0228 C   0  0  0  0  0  0  0  0  0  0  0  0
   21.6624   21.2572   36.7107 O   0  0  0  0  0  0  0  0  0  0  0  0
   23.1715   27.9752   36.6180 O   0  0  0  0  0  0  0  0  0  0  0  0
   24.1154   28.0193   38.5608 O   0  0  0  0  0  0  0  0  0  0  0  0
   22.4980   25.4498   35.5649 N   0  0  0  0  0  0  0  0  0  0  0  0
   23.0041   23.6645   36.9037 N   0  0  0  0  0  0  0  0  0  0  0  0
  1  4  1  0
  1  5  2  0
  1 20  1  0
  2  3  1  0
  2 23  2  0
  2 24  1  0
  3  6  1  0
  4  8  1  0
  5  9  1  0
  5 24  1  0
  6 21  2  0
  6 22  1  0
  7 10  2  0
  7 11  1  0
  8 11  1  0
  8 12  2  0
  9 12  1  0
 10 13  1  0
 11 15  2  0
 13 14  2  0
 13 16  1  0
 14 17  1  0
 15 16  1  0
 16 18  2  0
 17 19  2  0
 18 19  1  0
M  END
$$$$

     RDKit          3D

 25 28  0  0  0  0  0  0  0  0999 V2000
   21.5874   21.1378   31.0280 C   0  0  0  0  0  0  0  0  0  0  0  0
   22.6951   16.5674   39.2338 C   0  0  0  0  0  0  0  0  0  0  0  0
   22.5732   20.6996   30.1116 C   0  0  0  0  0  0  0  0  0  0  0  0
   22.8603   19.2777   30.2148 C   0  0  1  0  0  0  0  0  0  0  0  0
   22.9432   20.2907   33.6568 C   0  0  0  0  0  0  0  0  0  0  0  0
   22.9574   18.7824   28.7248 C   0  0  0  0  0  0  0  0  0  0  0  0
   23.3146   21.5346   29.3022 C   0  0  0  0  0  0  0  0  0  0  0  0
   23.7101   15.9533   38.2356 C   0  0  0  0  0  0  0  0  0  0  0  0
   23.5615   17.3740   40.1739 C   0  0  0  0  0  0  0  0  0  0  0  0
   23.6883   19.4194   34.6735 C   0  0  2  0  0  0  0  0  0  0  0  0
   23.4613   19.8092   36.1030 C   0  0  0  0  0  0  0  0  0  0  0  0
   23.8204   18.7070   37.0812 C   0  0  0  0  0  0  0  0  0  0  0  0
   23.9378   19.3870   31.3042 C   0  0  2  0  0  0  0  0  0  0  0  0
   23.9588   20.4894   32.5065 C   0  0  2  0  0  0  0  0  0  0  0  0
   24.8579   17.7459   39.4678 C   0  0  0  0  0  0  0  0  0  0  0  0
   24.9825   16.8789   38.1429 C   0  0  2  0  0  0  0  0  0  0  0  0
   24.9609   17.6945   36.7910 C   0  0  2  0  0  0  0  0  0  0  0  0
   25.2062   19.3061   34.2442 C   0  0  1  0  0  0  0  0  0  0  0  0
   25.3336   19.5944   30.7114 C   0  0  0  0  0  0  0  0  0  0  0  0
   25.3266   20.3542   33.1485 C   0  0  2  0  0  0  0  0  0  0  0  0
   25.7120   21.5903   33.8372 C   0  0  0  0  0  0  0  0  0  0  0  0
   26.3617   18.3117   36.4077 C   0  0  0  0  0  0  0  0  0  0  0  0
   26.3321   19.4609   35.3271 C   0  0  0  0  0  0  0  0  0  0  0  0
   26.2496   19.9776   31.9482 C   0  0  0  0  0  0  0  0  0  0  0  0
   23.1137   17.9308   41.1977 O   0  0  0  0  0  0  0  0  0  0  0  0
  1  3  1  0
  2  8  1  0
  2  9  1  0
  3  4  1  0
  3  7  1  0
  4  6  1  6
  4 13  1  0
 10  5  1  6
 14  5  1  1
 16  8  1  6
  9 15  1  0
  9 25  2  0
 10 11  1  0
 10 18  1  0
 11 12  1  0
 17 12  1  1
 13 14  1  0
 13 19  1  6
 14 20  1  0
 15 16  1  0
 16 17  1  0
 17 22  1  0
 18 20  1  0
 18 23  1  1
 19 24  1  0
 20 21  1  1
 20 24  1  0
 22 23  1  0
M  END
$$$$

     RDKit          3D

 24 26  0  0  0  0  0  0  0  0999 V2000
   22.4278   19.9059   30.7477 C   0  0  0  0  0  0  0  0  0  0  0  0
   22.3335   20.1879   33.9723 C   0  0  0  0  0  0  0  0  0  0  0  0
   22.6306   21.7508   36.3826 C   0  0  0  0  0  0  0  0  0  0  0  0
   23.2929   20.7573   28.7090 C   0  0  0  0  0  0  0  0  0  0  0  0
   23.9155   21.4701   35.7638 C   0  0  0  0  0  0  0  0  0  0  0  0
   24.2827   20.2574   35.3568 C   0  0  2  0  0  0  0  0  0  0  0  0
   24.5916   22.6685   35.2954 C   0  0  0  0  0  0  0  0  0  0  0  0
   25.1905   19.5083   32.7671 C   0  0  0  0  0  0  0  0  0  0  0  0
   25.0096   20.0002   30.2645 C   0  0  0  0  0  0  0  0  0  0  0  0
   25.3203   18.6625   33.8913 C   0  0  0  0  0  0  0  0  0  0  0  0
   25.2538   19.0433   31.4722 C   0  0  0  0  0  0  0  0  0  0  0  0
   25.2580   19.2147   35.2911 C   0  0  1  0  0  0  0  0  0  0  0  0
   25.6632   17.3105   33.6481 C   0  0  0  0  0  0  0  0  0  0  0  0
   25.5774   17.7158   31.2315 C   0  0  0  0  0  0  0  0  0  0  0  0
   25.7586   16.8319   32.3395 C   0  0  0  0  0  0  0  0  0  0  0  0
   26.4289   18.6550   37.5472 C   0  0  0  0  0  0  0  0  0  0  0  0
   26.4551   19.0219   36.1464 C   0  0  0  0  0  0  0  0  0  0  0  0
   27.6040   18.4091   38.2407 C   0  0  0  0  0  0  0  0  0  0  0  0
   27.7052   19.1736   35.5810 C   0  0  0  0  0  0  0  0  0  0  0  0
   28.8047   18.5915   37.6125 C   0  0  0  0  0  0  0  0  0  0  0  0
   28.8785   19.0093   36.2983 C   0  0  0  0  0  0  0  0  0  0  0  0
   23.6351   20.4742   30.1087 N   0  0  0  0  0  0  0  0  0  0  0  0
   23.5752   20.6771   34.3651 N   0  0  0  0  0  0  0  0  0  0  0  0
   25.0575   21.1602   33.0796 S   0  0  0  0  0  0  0  0  0  0  0  0
  1 22  1  0
  2 23  1  0
  3  5  1  0
  4 22  1  0
  6  5  1  6
  5  7  1  0
  6 12  1  0
  6 23  1  0
  8 10  2  0
  8 11  1  0
  8 24  1  0
  9 11  1  0
  9 22  1  0
 10 12  1  0
 10 13  1  0
 11 14  2  0
 12 17  1  6
 13 15  2  0
 14 15  1  0
 16 17  2  0
 16 18  1  0
 17 19  1  0
 18 20  2  0
 19 21  2  0
 20 21  1  0
 23 24  1  0
M  END
$$$$

     RDKit          3D

 26 27  0  0  0  0  0  0  0  0999 V2000
   22.5366   19.7292   33.1595 C   0  0  0  0  0  0  0  0  0  0  0  0
   22.5282   20.9199   32.5751 C   0  0  0  0  0  0  0  0  0  0  0  0
   22.7065   23.3861   32.6968 C   0  0  0  0  0  0  0  0  0  0  0  0
   22.7888   19.6645   34.5229 C   0  0  0  0  0  0  0  0  0  0  0  0
   22.8956   21.9928   34.6381 C   0  0  0  0  0  0  0  0  0  0  0  0
   23.1258   20.7781   35.2013 C   0  0  1  0  0  0  0  0  0  0  0  0
   23.5990   20.7313   36.6476 C   0  0  0  0  0  0  0  0  0  0  0  0
   24.9329   17.2597   33.5796 C   0  0  0  0  0  0  0  0  0  0  0  0
   24.8174   17.5858   34.9085 C   0  0  0  0  0  0  0  0  0  0  0  0
   25.2788   18.8588   36.9293 C   0  0  0  0  0  0  0  0  0  0  0  0
   25.5430   18.6207   35.4630 C   0  0  0  0  0  0  0  0  0  0  0  0
   25.7794   17.9624   32.7567 C   0  0  0  0  0  0  0  0  0  0  0  0
   26.4318   19.3348   34.6364 C   0  0  0  0  0  0  0  0  0  0  0  0
   26.5249   18.9997   33.3069 C   0  0  0  0  0  0  0  0  0  0  0  0
   27.3292   20.4102   35.2306 C   0  0  0  0  0  0  0  0  0  0  0  0
   28.2606   18.1766   30.2426 C   0  0  0  0  0  0  0  0  0  0  0  0
   28.6054   19.6047   35.9483 C   0  0  0  0  0  0  0  0  0  0  0  0
   24.5115   18.1260   30.5967 O   0  0  0  0  0  0  0  0  0  0  0  0
   25.7517   18.1934   37.7903 O   0  0  0  0  0  0  0  0  0  0  0  0
   26.1179   16.2432   30.8859 O   0  0  0  0  0  0  0  0  0  0  0  0
   26.8816   18.5087   30.4204 O   0  0  0  0  0  0  0  0  0  0  0  0
   22.6671   22.0971   33.3194 N   0  0  0  0  0  0  0  0  0  0  0  0
   24.1208   19.5929   37.1393 N   0  0  0  0  0  0  0  0  0  0  0  0
   25.8255   17.6803   31.1032 S   0  0  0  0  0  0  0  0  0  0  0  0
   24.1911   16.3297   33.0695 F   0  0  0  0  0  0  0  0  0  0  0  0
   27.3484   19.7032   32.5303 F   0  0  0  0  0  0  0  0  0  0  0  0
  1  2  2  0
  1  4  1  0
  2 22  1  0
  3 22  1  0
  4  6  1  0
  5  6  1  0
  5 22  1  0
  6  7  1  1
  7 23  1  0
  8  9  2  0
  8 12  1  0
  8 25  1  0
  9 11  1  0
 10 11  1  0
 10 19  2  0
 10 23  1  0
 11 13  2  0
 12 14  2  0
 12 24  1  0
 13 14  1  0
 13 15  1  0
 14 26  1  0
 15 17  1  0
 16 21  1  0
 18 24  1  0
 20 24  1  0
 21 24  1  0
M  END
$$$$

     RDKit          3D

 35 39  0  0  0  0  0  0  0  0999 V2000
   22.1351   17.7730   38.9440 C   0  0  0  0  0  0  0  0  0  0  0  0
   22.7061   16.5278   39.0976 C   0  0  0  0  0  0  0  0  0  0  0  0
   22.7742   18.7059   38.1255 C   0  0  0  0  0  0  0  0  0  0  0  0
   22.8770   22.0202   33.1835 C   0  0  1  0  0  0  0  0  0  0  0  0
   23.3065   20.2220   34.8925 C   0  0  0  0  0  0  0  0  0  0  0  0
   23.3461   21.2187   31.9189 C   0  0  0  0  0  0  0  0  0  0  0  0
   23.5538   21.6686   34.4727 C   0  0  2  0  0  0  0  0  0  0  0  0
   23.4841   24.0366   34.2508 C   0  0  0  0  0  0  0  0  0  0  0  0
   23.8046   16.1359   38.3030 C   0  0  0  0  0  0  0  0  0  0  0  0
   23.9592   18.4145   37.4266 C   0  0  0  0  0  0  0  0  0  0  0  0
   23.7511   22.9645   35.1994 C   0  0  0  0  0  0  0  0  0  0  0  0
   24.4269   17.0859   37.4658 C   0  0  0  0  0  0  0  0  0  0  0  0
   24.3792   17.8449   33.3513 C   0  0  0  0  0  0  0  0  0  0  0  0
   24.9410   18.8724   34.1005 C   0  0  0  0  0  0  0  0  0  0  0  0
   24.7236   19.4304   36.6630 C   0  0  1  0  0  0  0  0  0  0  0  0
   25.0337   17.3783   32.1828 C   0  0  0  0  0  0  0  0  0  0  0  0
   26.1642   19.4091   33.7020 C   0  0  0  0  0  0  0  0  0  0  0  0
   26.2624   17.9397   31.7973 C   0  0  0  0  0  0  0  0  0  0  0  0
   26.2342   19.2693   36.8271 C   0  0  0  0  0  0  0  0  0  0  0  0
   26.7681   18.6544   38.0103 C   0  0  0  0  0  0  0  0  0  0  0  0
   26.8183   18.9542   32.5633 C   0  0  0  0  0  0  0  0  0  0  0  0
   26.7644   20.4586   34.5737 C   0  0  0  0  0  0  0  0  0  0  0  0
   27.1515   19.7526   35.8643 C   0  0  0  0  0  0  0  0  0  0  0  0
   28.1415   18.4935   38.1752 C   0  0  0  0  0  0  0  0  0  0  0  0
   28.5131   19.5717   36.0509 C   0  0  0  0  0  0  0  0  0  0  0  0
   29.0030   18.9545   37.1819 C   0  0  0  0  0  0  0  0  0  0  0  0
   20.7049   24.7087   33.0704 O   0  0  0  0  0  0  0  0  0  0  0  0
   21.4730   23.5985   31.0553 O   0  0  0  0  0  0  0  0  0  0  0  0
   22.1971   19.7202   34.8338 O   0  0  0  0  0  0  0  0  0  0  0  0
   22.5862   25.5204   31.7972 O   0  0  0  0  0  0  0  0  0  0  0  0
   22.9463   23.4690   33.0630 N   0  0  0  0  0  0  0  0  0  0  0  0
   24.3214   19.4285   35.2386 N   0  0  0  0  0  0  0  0  0  0  0  0
   21.7876   24.3578   32.2450 S   0  0  0  0  0  0  0  0  0  0  0  0
   22.2116   15.6033   39.9405 F   0  0  0  0  0  0  0  0  0  0  0  0
   30.7703   19.0651   37.4331 Cl  0  0  0  0  0  0  0  0  0  0  0  0
  1  2  2  0
  1  3  1  0
  2  9  1  0
  2 34  1  0
  3 10  2  0
  4  6  1  6
  4  7  1  0
  4 31  1  0
  7  5  1  1
  5 29  2  0
  5 32  1  0
  7 11  1  0
  8 11  1  0
  8 31  1  0
  9 12  2  0
 10 12  1  0
 15 10  1  1
 13 14  2  0
 13 16  1  0
 14 17  1  0
 14 32  1  0
 15 19  1  0
 15 32  1  0
 16 18  2  0
 17 21  2  0
 17 22  1  0
 18 21  1  0
 19 20  2  0
 19 23  1  0
 20 24  1  0
 22 23  1  0
 23 25  2  0
 24 26  2  0
 25 26  1  0
 26 35  1  0
 27 33  1  0
 28 33  1  0
 30 33  1  0
 31 33  1  0
M  END
$$$$

     RDKit          3D

 34 37  0  0  0  0  0  0  0  0999 V2000
   22.0554   17.4367   43.1473 C   0  0  0  0  0  0  0  0  0  0  0  0
   22.0586   23.4015   31.7166 C   0  0  0  0  0  0  0  0  0  0  0  0
   22.3001   16.6367   40.7080 C   0  0  2  0  0  0  0  0  0  0  0  0
   22.5684   16.0003   39.5248 C   0  0  0  0  0  0  0  0  0  0  0  0
   22.5838   17.9122   39.8794 C   0  0  0  0  0  0  0  0  0  0  0  0
   22.6390   21.1342   32.3595 C   0  0  0  0  0  0  0  0  0  0  0  0
   22.8184   17.4407   41.6474 C   0  0  0  0  0  0  0  0  0  0  0  0
   22.7282   17.9780   38.5514 C   0  0  1  0  0  0  0  0  0  0  0  0
   22.7312   22.5147   32.5661 C   0  0  2  0  0  0  0  0  0  0  0  0
   22.9924   20.2634   33.3836 C   0  0  0  0  0  0  0  0  0  0  0  0
   23.4157   20.7806   34.6162 C   0  0  1  0  0  0  0  0  0  0  0  0
   23.2833   22.9970   33.7481 C   0  0  0  0  0  0  0  0  0  0  0  0
   23.4766   18.6928   37.4316 C   0  0  0  0  0  0  0  0  0  0  0  0
   23.7016   19.9079   35.6962 C   0  0  0  0  0  0  0  0  0  0  0  0
   23.6292   22.1595   34.7708 C   0  0  0  0  0  0  0  0  0  0  0  0
   24.8915   18.8488   37.1906 C   0  0  0  0  0  0  0  0  0  0  0  0
   25.5988   15.8587   32.3568 C   0  0  0  0  0  0  0  0  0  0  0  0
   25.5655   16.7538   33.4192 C   0  0  0  0  0  0  0  0  0  0  0  0
   26.1320   16.2595   31.1445 C   0  0  0  0  0  0  0  0  0  0  0  0
   26.1110   18.0589   33.3012 C   0  0  2  0  0  0  0  0  0  0  0  0
   26.1395   18.4763   38.0812 C   0  0  0  0  0  0  0  0  0  0  0  0
   26.1449   19.8402   35.2788 C   0  0  0  0  0  0  0  0  0  0  0  0
   26.6848   17.5236   30.9952 C   0  0  0  0  0  0  0  0  0  0  0  0
   26.6459   18.4176   32.0609 C   0  0  0  0  0  0  0  0  0  0  0  0
   26.6060   18.8111   34.4463 C   0  0  0  0  0  0  0  0  0  0  0  0
   28.3748   18.6756   29.8564 C   0  0  0  0  0  0  0  0  0  0  0  0
   25.9242   17.8174   39.0879 O   0  0  0  0  0  0  0  0  0  0  0  0
   26.8563   20.7483   35.6067 O   0  0  0  0  0  0  0  0  0  0  0  0
   27.2583   17.8495   29.8096 O   0  0  0  0  0  0  0  0  0  0  0  0
   27.2880   18.8707   37.7831 O   0  0  0  0  0  0  0  0  0  0  0  0
   21.9417   23.7467   30.6556 N   0  0  0  0  0  0  0  0  0  0  0  0
   22.4311   16.7336   38.5341 N   0  0  0  0  0  0  0  0  0  0  0  0
   22.7694   19.3613   36.4938 N   0  0  0  0  0  0  0  0  0  0  0  0
   24.9548   19.5784   36.0897 N   0  0  0  0  0  0  0  0  0  0  0  0
  1  7  1  0
  9  2  1  1
  2 31  2  0
  3  4  1  0
  3  5  1  0
  3  7  1  1
  4 32  1  0
  5  8  1  0
  6  9  1  0
  6 10  2  0
  8 13  1  1
  8 32  1  0
  9 12  1  0
 10 11  1  0
 11 14  1  6
 11 15  1  0
 12 15  2  0
 13 16  2  0
 13 33  1  0
 14 33  2  0
 14 34  1  0
 16 21  1  0
 16 34  1  0
 17 18  1  0
 17 19  2  0
 18 20  1  0
 19 23  1  0
 20 24  1  0
 20 25  1  1
 21 27  2  0
 21 30  1  0
 22 25  1  0
 22 28  2  0
 22 34  1  0
 23 24  2  0
 23 29  1  0
 26 29  1  0
M  END
$$$$

     RDKit          3D

 41 46  0  0  0  0  0  0  0  0999 V2000
   21.5770   18.3966   29.6757 C   0  0  0  0  0  0  0  0  0  0  0  0
   21.6148   19.1442   30.9193 C   0  0  0  0  0  0  0  0  0  0  0  0
   22.1449   16.1789   39.4753 C   0  0  0  0  0  0  0  0  0  0  0  0
   22.1715   16.6633   40.7961 C   0  0  0  0  0  0  0  0  0  0  0  0
   21.9947   19.2580   28.4958 C   0  0  0  0  0  0  0  0  0  0  0  0
   22.6211   22.2011   32.1833 C   0  0  0  0  0  0  0  0  0  0  0  0
   22.5568   23.0223   33.4617 C   0  0  0  0  0  0  0  0  0  0  0  0
   22.7159   20.0532   31.1482 C   0  0  0  0  0  0  0  0  0  0  0  0
   22.9261   20.1586   33.6190 C   0  0  0  0  0  0  0  0  0  0  0  0
   23.1407   16.5418   38.5693 C   0  0  0  0  0  0  0  0  0  0  0  0
   23.0427   21.0669   34.8547 C   0  0  0  0  0  0  0  0  0  0  0  0
   23.2465   17.4457   41.1780 C   0  0  0  0  0  0  0  0  0  0  0  0
   23.4551   19.6922   28.7538 C   0  0  0  0  0  0  0  0  0  0  0  0
   23.4921   20.5576   29.9900 C   0  0  0  0  0  0  0  0  0  0  0  0
   24.1521   17.3876   38.9367 C   0  0  0  0  0  0  0  0  0  0  0  0
   24.2549   17.8236   40.2707 C   0  0  0  0  0  0  0  0  0  0  0  0
   24.9079   18.1671   36.4773 C   0  0  0  0  0  0  0  0  0  0  0  0
   25.1305   17.8658   37.9172 C   0  0  0  0  0  0  0  0  0  0  0  0
   25.7192   21.4154   34.6668 C   0  0  0  0  0  0  0  0  0  0  0  0
   26.0409   18.6236   35.6852 C   0  0  0  0  0  0  0  0  0  0  0  0
   26.1102   18.9575   34.2048 C   0  0  0  0  0  0  0  0  0  0  0  0
   26.0918   20.2955   33.7558 C   0  0  0  0  0  0  0  0  0  0  0  0
   26.3604   17.9417   33.2569 C   0  0  0  0  0  0  0  0  0  0  0  0
   26.7181   18.3538   31.9346 C   0  0  0  0  0  0  0  0  0  0  0  0
   26.7305   19.7374   31.5436 C   0  0  0  0  0  0  0  0  0  0  0  0
   27.0809   17.3783   30.9793 C   0  0  0  0  0  0  0  0  0  0  0  0
   27.3924   18.4493   37.7658 C   0  0  0  0  0  0  0  0  0  0  0  0
   27.2762   18.7750   36.3876 C   0  0  0  0  0  0  0  0  0  0  0  0
   27.2554   20.1233   30.2970 C   0  0  0  0  0  0  0  0  0  0  0  0
   27.6318   17.7923   29.7750 C   0  0  0  0  0  0  0  0  0  0  0  0
   27.7313   19.1415   29.4187 C   0  0  0  0  0  0  0  0  0  0  0  0
   28.4540   19.1796   35.6802 C   0  0  0  0  0  0  0  0  0  0  0  0
   28.6362   18.5104   38.3786 C   0  0  0  0  0  0  0  0  0  0  0  0
   29.6477   19.2118   36.3099 C   0  0  0  0  0  0  0  0  0  0  0  0
   29.7477   18.8440   37.6620 C   0  0  0  0  0  0  0  0  0  0  0  0
   22.3981   22.8048   31.1932 O   0  0  0  0  0  0  0  0  0  0  0  0
   23.7268   18.1057   35.9929 O   0  0  0  0  0  0  0  0  0  0  0  0
   24.5133   21.2997   35.1842 O   0  0  0  0  0  0  0  0  0  0  0  0
   22.7677   20.7908   32.3439 N   0  0  0  0  0  0  0  0  0  0  0  0
   26.3278   18.0427   38.4695 N   0  0  0  0  0  0  0  0  0  0  0  0
   26.3039   20.6355   32.4579 N   0  0  0  0  0  0  0  0  0  0  0  0
  1  2  1  0
  1  5  1  0
  2  8  1  0
  3  4  1  0
  3 10  1  0
  4 12  2  0
  5 13  1  0
  6  7  1  0
  6 36  2  0
  6 39  1  0
  8 14  1  0
  8 39  1  0
  9 11  1  0
  9 39  1  0
 10 15  2  0
 11 38  1  0
 12 16  1  0
 13 14  1  0
 15 16  1  0
 15 18  1  0
 17 18  1  0
 17 20  1  0
 17 37  2  0
 18 40  2  0
 19 22  1  0
 19 38  1  0
 20 21  1  0
 20 28  2  0
 21 22  1  0
 21 23  2  0
 22 41  2  0
 23 24  1  0
 24 25  2  0
 24 26  1  0
 25 29  1  0
 25 41  1  0
 26 30  2  0
 27 28  1  0
 27 33  2  0
 27 40  1  0
 28 32  1  0
 29 31  2  0
 30 31  1  0
 32 34  2  0
 33 35  1  0
 34 35  1  0
M  END
$$$$

     RDKit          3D

 27 29  0  0  0  0  0  0  0  0999 V2000
   22.4307   21.3196   28.8654 C   0  0  0  0  0  0  0  0  0  0  0  0
   22.4799   21.8516   30.1272 C   0  0  0  0  0  0  0  0  0  0  0  0
   22.9031   19.1602   29.5554 C   0  0  0  0  0  0  0  0  0  0  0  0
   22.7767   21.0103   31.1784 C   0  0  0  0  0  0  0  0  0  0  0  0
   23.0303   19.6277   30.9109 C   0  0  0  0  0  0  0  0  0  0  0  0
   23.4351   18.7728   31.9205 C   0  0  0  0  0  0  0  0  0  0  0  0
   23.2713   20.7341   33.5184 C   0  0  0  0  0  0  0  0  0  0  0  0
   23.5339   19.3838   33.1902 C   0  0  0  0  0  0  0  0  0  0  0  0
   24.4747   19.3258   36.5702 C   0  0  0  0  0  0  0  0  0  0  0  0
   24.5774   20.3746   35.6324 C   0  0  0  0  0  0  0  0  0  0  0  0
   25.7060   18.6786   37.0669 C   0  0  0  0  0  0  0  0  0  0  0  0
   25.8021   17.4566   37.9516 C   0  0  0  0  0  0  0  0  0  0  0  0
   25.8002   20.7735   35.1862 C   0  0  0  0  0  0  0  0  0  0  0  0
   26.9787   19.1961   36.6273 C   0  0  0  0  0  0  0  0  0  0  0  0
   26.9865   20.2025   35.6713 C   0  0  0  0  0  0  0  0  0  0  0  0
   29.3056   19.1053   36.4610 C   0  0  0  0  0  0  0  0  0  0  0  0
   22.0773   23.3085   34.4230 O   0  0  0  0  0  0  0  0  0  0  0  0
   22.2118   22.5278   36.6735 O   0  0  0  0  0  0  0  0  0  0  0  0
   24.1794   23.3583   35.5690 O   0  0  0  0  0  0  0  0  0  0  0  0
   28.1393   18.6691   37.0985 O   0  0  0  0  0  0  0  0  0  0  0  0
   22.5995   20.0158   28.6041 N   0  0  0  0  0  0  0  0  0  0  0  0
   22.8444   21.5249   32.5098 N   0  0  0  0  0  0  0  0  0  0  0  0
   23.3421   21.0486   34.9250 N   0  0  0  0  0  0  0  0  0  0  0  0
   22.9080   22.6261   35.4454 S   0  0  0  0  0  0  0  0  0  0  0  0
   25.1580   16.4679   37.4125 F   0  0  0  0  0  0  0  0  0  0  0  0
   24.9843   17.8259   38.9788 F   0  0  0  0  0  0  0  0  0  0  0  0
   22.8488   18.8590   37.0705 Cl  0  0  0  0  0  0  0  0  0  0  0  0
  1  2  2  0
  1 21  1  0
  2  4  1  0
  3  5  1  0
  3 21  2  0
  4  5  2  0
  4 22  1  0
  5  6  1  0
  6  8  1  0
  7  8  1  0
  7 22  2  0
  7 23  1  0
  9 10  2  0
  9 11  1  0
  9 27  1  0
 10 13  1  0
 10 23  1  0
 11 12  1  0
 11 14  2  0
 12 25  1  0
 12 26  1  0
 13 15  2  0
 14 15  1  0
 14 20  1  0
 16 20  1  0
 17 24  1  0
 18 24  1  0
 19 24  1  0
 23 24  1  0
M  END
$$$$

     RDKit          3D

 22 24  0  0  0  0  0  0  0  0999 V2000
   21.6914   20.8533   30.8746 C   0  0  0  0  0  0  0  0  0  0  0  0
   21.9439   22.0695   31.4832 C   0  0  0  0  0  0  0  0  0  0  0  0
   22.1194   22.2214   36.3102 C   0  0  0  0  0  0  0  0  0  0  0  0
   22.5603   18.4631   30.5559 C   0  0  0  0  0  0  0  0  0  0  0  0
   22.5548   19.8147   31.0451 C   0  0  0  0  0  0  0  0  0  0  0  0
   22.8308   21.0481   36.3016 C   0  0  0  0  0  0  0  0  0  0  0  0
   22.7723   23.4369   36.1914 C   0  0  0  0  0  0  0  0  0  0  0  0
   23.0561   22.2273   32.3242 C   0  0  0  0  0  0  0  0  0  0  0  0
   23.6487   19.9231   31.8773 C   0  0  0  0  0  0  0  0  0  0  0  0
   23.9484   21.1809   32.5363 C   0  0  0  0  0  0  0  0  0  0  0  0
   24.1869   21.0368   36.1618 C   0  0  0  0  0  0  0  0  0  0  0  0
   24.1630   23.4595   35.9952 C   0  0  0  0  0  0  0  0  0  0  0  0
   24.2325   18.6605   31.9018 C   0  0  0  0  0  0  0  0  0  0  0  0
   24.4951   18.7231   37.1473 C   0  0  0  0  0  0  0  0  0  0  0  0
   24.9392   19.7316   36.1260 C   0  0  1  0  0  0  0  0  0  0  0  0
   24.8653   22.2391   35.9436 C   0  0  0  0  0  0  0  0  0  0  0  0
   25.4771   18.2645   32.6418 C   0  0  0  0  0  0  0  0  0  0  0  0
   25.6918   18.7735   34.0159 C   0  0  0  0  0  0  0  0  0  0  0  0
   21.7359   17.8555   29.8478 O   0  0  0  0  0  0  0  0  0  0  0  0
   26.8337   18.9364   34.3705 O   0  0  0  0  0  0  0  0  0  0  0  0
   23.6345   17.8358   31.0736 N   0  0  0  0  0  0  0  0  0  0  0  0
   24.6661   19.0840   34.8183 N   0  0  0  0  0  0  0  0  0  0  0  0
  1  2  1  0
  1  5  2  0
  2  8  2  0
  3  6  2  0
  3  7  1  0
  4  5  1  0
  4 19  2  0
  4 21  1  0
  5  9  1  0
  6 11  1  0
  7 12  2  0
  8 10  1  0
  9 10  1  0
  9 13  2  0
 11 15  1  0
 11 16  2  0
 12 16  1  0
 13 17  1  0
 13 21  1  0
 15 14  1  1
 15 22  1  0
 17 18  1  0
 18 20  2  0
 18 22  1  0
M  END
$$$$

     RDKit          3D

 13 14  0  0  0  0  0  0  0  0999 V2000
   23.0420   21.9934   35.6925 C   0  0  0  0  0  0  0  0  0  0  0  0
   23.3263   20.8074   34.9568 C   0  0  0  0  0  0  0  0  0  0  0  0
   24.0335   22.8774   36.0725 C   0  0  0  0  0  0  0  0  0  0  0  0
   24.6650   20.5108   34.6384 C   0  0  0  0  0  0  0  0  0  0  0  0
   24.7945   17.9696   34.3214 C   0  0  0  0  0  0  0  0  0  0  0  0
   25.1032   16.8721   33.5351 C   0  0  0  0  0  0  0  0  0  0  0  0
   25.0394   19.2712   33.8393 C   0  0  0  0  0  0  0  0  0  0  0  0
   25.3496   22.5766   35.7043 C   0  0  0  0  0  0  0  0  0  0  0  0
   25.7079   17.0236   32.2721 C   0  0  0  0  0  0  0  0  0  0  0  0
   25.6673   19.4078   32.5737 C   0  0  0  0  0  0  0  0  0  0  0  0
   25.6549   21.4078   35.0012 C   0  0  0  0  0  0  0  0  0  0  0  0
   25.9897   18.2977   31.7773 C   0  0  0  0  0  0  0  0  0  0  0  0
   27.2174   20.9955   34.8114 Cl  0  0  0  0  0  0  0  0  0  0  0  0
  1  2  2  0
  1  3  1  0
  2  4  1  0
  3  8  2  0
  4  7  1  0
  4 11  2  0
  5  6  2  0
  5  7  1  0
  6  9  1  0
  7 10  2  0
  8 11  1  0
  9 12  2  0
 10 12  1  0
 11 13  1  0
M  END
$$$$

     RDKit          3D

 23 26  0  0  0  0  0  0  0  0999 V2000
   22.1656   20.6926   36.2100 C   0  0  0  0  0  0  0  0  0  0  0  0
   23.0521   18.5312   37.8075 C   0  0  0  0  0  0  0  0  0  0  0  0
   23.2135   19.7734   35.7236 C   0  0  0  0  0  0  0  0  0  0  0  0
   23.4676   17.4311   38.5595 C   0  0  0  0  0  0  0  0  0  0  0  0
   23.6742   18.7318   36.5499 C   0  0  0  0  0  0  0  0  0  0  0  0
   23.6972   19.8485   34.3909 C   0  0  0  0  0  0  0  0  0  0  0  0
   23.4717   20.9060   32.2948 C   0  0  0  0  0  0  0  0  0  0  0  0
   24.5314   16.6425   38.1772 C   0  0  0  0  0  0  0  0  0  0  0  0
   24.7067   17.8621   36.0994 C   0  0  0  0  0  0  0  0  0  0  0  0
   24.5047   20.1010   31.7738 C   0  0  0  0  0  0  0  0  0  0  0  0
   24.7321   19.0027   33.9320 C   0  0  0  0  0  0  0  0  0  0  0  0
   24.8641   20.3729   30.4290 C   0  0  0  0  0  0  0  0  0  0  0  0
   25.1730   16.8498   36.9757 C   0  0  0  0  0  0  0  0  0  0  0  0
   25.1208   19.1077   32.5694 C   0  0  0  0  0  0  0  0  0  0  0  0
   25.2407   18.0149   34.7768 C   0  0  0  0  0  0  0  0  0  0  0  0
   25.8559   19.5543   29.9150 C   0  0  0  0  0  0  0  0  0  0  0  0
   26.0610   18.3117   31.9246 C   0  0  0  0  0  0  0  0  0  0  0  0
   26.4089   18.5075   30.6091 C   0  0  0  0  0  0  0  0  0  0  0  0
   21.1732   20.2486   36.8429 O   0  0  0  0  0  0  0  0  0  0  0  0
   22.2381   21.9429   36.0184 O   0  0  0  0  0  0  0  0  0  0  0  0
   22.9620   21.7213   31.5063 O   0  0  0  0  0  0  0  0  0  0  0  0
   23.1564   20.7635   33.5725 N   0  0  0  0  0  0  0  0  0  0  0  0
   22.8909   16.9178   40.1632 Cl  0  0  0  0  0  0  0  0  0  0  0  0
  1  3  1  0
  1 19  2  0
  1 20  1  0
  2  4  2  0
  2  5  1  0
  3  5  2  0
  3  6  1  0
  4  8  1  0
  4 23  1  0
  5  9  1  0
  6 11  1  0
  6 22  2  0
  7 10  1  0
  7 21  2  0
  7 22  1  0
  8 13  2  0
  9 13  1  0
  9 15  2  0
 10 12  1  0
 10 14  1  0
 11 14  2  0
 11 15  1  0
 12 16  1  0
 14 17  1  0
 16 18  1  0
 17 18  2  0
M  END
$$$$

     RDKit          3D

 28 31  0  0  0  0  0  0  0  0999 V2000
   21.8449   19.7812   36.9091 C   0  0  0  0  0  0  0  0  0  0  0  0
   22.6058   23.7140   33.0861 C   0  0  2  0  0  0  0  0  0  0  0  0
   23.0040   19.0036   36.3516 C   0  0  0  0  0  0  0  0  0  0  0  0
   23.3314   22.8358   34.0342 C   0  0  0  0  0  0  0  0  0  0  0  0
   23.5392   23.1413   35.3586 C   0  0  0  0  0  0  0  0  0  0  0  0
   24.1747   18.8098   37.1116 C   0  0  0  0  0  0  0  0  0  0  0  0
   23.9861   21.4512   33.8600 C   0  0  0  0  0  0  0  0  0  0  0  0
   24.3556   22.1404   35.9767 C   0  0  0  0  0  0  0  0  0  0  0  0
   24.6751   21.0875   34.9810 C   0  0  1  0  0  0  0  0  0  0  0  0
   25.4192   16.8569   32.8363 C   0  0  0  0  0  0  0  0  0  0  0  0
   25.4209   17.6959   33.9243 C   0  0  0  0  0  0  0  0  0  0  0  0
   25.3531   19.3475   36.6756 C   0  0  0  0  0  0  0  0  0  0  0  0
   25.5024   19.9310   35.3045 C   0  0  1  0  0  0  0  0  0  0  0  0
   25.9350   18.9399   33.8772 C   0  0  0  0  0  0  0  0  0  0  0  0
   25.9681   17.2800   31.6470 C   0  0  0  0  0  0  0  0  0  0  0  0
   26.6066   18.4796   31.5970 C   0  0  0  0  0  0  0  0  0  0  0  0
   26.6538   18.9696   37.1703 C   0  0  0  0  0  0  0  0  0  0  0  0
   26.6846   19.3117   32.7325 C   0  0  0  0  0  0  0  0  0  0  0  0
   27.0510   18.4422   38.3932 C   0  0  0  0  0  0  0  0  0  0  0  0
   27.6120   19.3249   36.2610 C   0  0  0  0  0  0  0  0  0  0  0  0
   28.3958   18.2326   38.6095 C   0  0  0  0  0  0  0  0  0  0  0  0
   28.9283   19.1379   36.4533 C   0  0  0  0  0  0  0  0  0  0  0  0
   29.3245   18.5889   37.6685 C   0  0  0  0  0  0  0  0  0  0  0  0
   22.2796   23.0689   32.0502 O   0  0  0  0  0  0  0  0  0  0  0  0
   22.2870   25.7876   31.8891 O   0  0  0  0  0  0  0  0  0  0  0  0
   27.0722   20.2316   35.2973 O   0  0  0  0  0  0  0  0  0  0  0  0
   23.1351   24.9914   32.7665 N   0  0  0  0  0  0  0  0  0  0  0  0
   24.7660   15.2997   32.9113 Cl  0  0  0  0  0  0  0  0  0  0  0  0
  1  3  1  0
  2  4  1  0
  2 24  1  6
  2 27  1  0
  3  6  1  0
  4  5  1  0
  4  7  1  0
  5  8  1  0
  6 12  2  3
  9  7  1  1
  8  9  1  0
  9 13  1  0
 10 11  1  0
 10 15  1  0
 10 28  1  0
 11 14  2  0
 12 13  1  0
 12 17  1  0
 13 14  1  6
 13 26  1  0
 14 18  1  0
 15 16  2  0
 16 18  1  0
 17 19  1  0
 17 20  2  0
 19 21  2  0
 20 22  1  0
 20 26  1  0
 21 23  1  0
 22 23  2  0
 25 27  1  0
M  END
$$$$

     RDKit          3D

 36 39  0  0  0  0  0  0  0  0999 V2000
   21.3467   15.5249   41.4427 C   0  0  0  0  0  0  0  0  0  0  0  0
   21.7355   19.0071   30.9626 C   0  0  0  0  0  0  0  0  0  0  0  0
   21.7956   24.5881   31.1793 C   0  0  0  0  0  0  0  0  0  0  0  0
   22.1201   19.7101   36.4055 C   0  0  0  0  0  0  0  0  0  0  0  0
   22.2210   18.7865   37.4328 C   0  0  0  0  0  0  0  0  0  0  0  0
   22.2206   20.4534   30.8009 C   0  0  0  0  0  0  0  0  0  0  0  0
   22.6579   18.0991   30.1697 C   0  0  0  0  0  0  0  0  0  0  0  0
   22.6070   21.1272   32.1526 C   0  0  0  0  0  0  0  0  0  0  0  0
   22.6765   22.5347   32.2461 C   0  0  0  0  0  0  0  0  0  0  0  0
   22.7147   16.9933   39.9445 C   0  0  0  0  0  0  0  0  0  0  0  0
   23.0794   20.9312   34.4548 C   0  0  0  0  0  0  0  0  0  0  0  0
   23.1959   22.2989   34.6341 C   0  0  0  0  0  0  0  0  0  0  0  0
   23.0209   23.1425   33.5143 C   0  0  0  0  0  0  0  0  0  0  0  0
   23.3744   19.0155   29.1516 C   0  0  0  0  0  0  0  0  0  0  0  0
   23.2296   20.0568   35.6246 C   0  0  0  0  0  0  0  0  0  0  0  0
   23.3146   20.4328   29.6876 C   0  0  0  0  0  0  0  0  0  0  0  0
   23.6852   17.2073   38.8736 C   0  0  0  0  0  0  0  0  0  0  0  0
   23.4640   18.1980   37.7399 C   0  0  2  0  0  0  0  0  0  0  0  0
   24.5939   18.6271   37.0508 C   0  0  0  0  0  0  0  0  0  0  0  0
   24.4909   19.5205   35.9954 C   0  0  0  0  0  0  0  0  0  0  0  0
   25.4255   17.2525   33.7368 C   0  0  0  0  0  0  0  0  0  0  0  0
   25.7629   19.9479   35.3812 C   0  0  0  0  0  0  0  0  0  0  0  0
   26.2375   18.4556   33.5003 C   0  0  1  0  0  0  0  0  0  0  0  0
   26.5583   18.8242   32.0701 C   0  0  0  0  0  0  0  0  0  0  0  0
   26.7710   17.8479   31.1335 C   0  0  0  0  0  0  0  0  0  0  0  0
   26.7308   20.1395   31.7622 C   0  0  0  0  0  0  0  0  0  0  0  0
   27.1994   18.1970   29.8678 C   0  0  0  0  0  0  0  0  0  0  0  0
   27.1583   20.4826   30.4777 C   0  0  0  0  0  0  0  0  0  0  0  0
   27.4144   19.5260   29.5296 C   0  0  0  0  0  0  0  0  0  0  0  0
   21.7989   15.9768   39.9500 O   0  0  0  0  0  0  0  0  0  0  0  0
   22.3976   23.2867   31.1634 O   0  0  0  0  0  0  0  0  0  0  0  0
   22.9678   17.4132   41.1634 O   0  0  0  0  0  0  0  0  0  0  0  0
   23.1384   24.4250   33.6900 O   0  0  0  0  0  0  0  0  0  0  0  0
   26.4190   20.7553   35.9940 O   0  0  0  0  0  0  0  0  0  0  0  0
   22.8130   20.4025   33.2374 N   0  0  0  0  0  0  0  0  0  0  0  0
   26.0932   19.5700   34.1942 N   0  0  0  0  0  0  0  0  0  0  0  0
  1 30  1  0
  2  6  1  0
  2  7  1  0
  3 31  1  0
  4  5  2  0
  4 15  1  0
  5 18  1  0
  6  8  1  0
  6 16  1  0
  7 14  1  0
  8  9  1  0
  8 35  2  0
  9 13  1  0
  9 31  1  0
 10 17  1  0
 10 30  1  0
 10 32  2  0
 11 12  1  0
 11 15  1  0
 11 35  1  0
 12 13  2  0
 13 33  1  0
 14 16  1  0
 15 20  1  0
 18 17  1  1
 18 19  1  0
 19 20  2  0
 20 22  1  0
 23 21  1  6
 22 34  2  0
 22 36  1  0
 23 24  1  0
 23 36  1  0
 24 25  2  0
 24 26  1  0
 25 27  1  0
 26 28  2  0
 27 29  2  0
 28 29  1  0
M  END
$$$$

     RDKit          3D

 36 41  0  0  0  0  0  0  0  0999 V2000
   21.2616   20.9051   29.2111 C   0  0  0  0  0  0  0  0  0  0  0  0
   21.9952   19.3156   30.6327 C   0  0  0  0  0  0  0  0  0  0  0  0
   22.2355   19.6164   31.9580 C   0  0  0  0  0  0  0  0  0  0  0  0
   22.8220   18.6840   29.7601 C   0  0  0  0  0  0  0  0  0  0  0  0
   23.1584   15.9414   39.8068 C   0  0  0  0  0  0  0  0  0  0  0  0
   23.4633   19.1814   32.4978 C   0  0  0  0  0  0  0  0  0  0  0  0
   23.5883   15.8824   38.4878 C   0  0  0  0  0  0  0  0  0  0  0  0
   23.5128   17.0070   40.6226 C   0  0  0  0  0  0  0  0  0  0  0  0
   24.0492   18.1757   30.2850 C   0  0  0  0  0  0  0  0  0  0  0  0
   24.3764   16.8880   37.9186 C   0  0  0  0  0  0  0  0  0  0  0  0
   24.3483   17.9803   40.1031 C   0  0  0  0  0  0  0  0  0  0  0  0
   24.2938   18.4300   31.6329 C   0  0  0  0  0  0  0  0  0  0  0  0
   24.6364   21.4876   35.3181 C   0  0  0  0  0  0  0  0  0  0  0  0
   24.7623   16.8142   36.4915 C   0  0  0  0  0  0  0  0  0  0  0  0
   24.7554   17.9219   38.7646 C   0  0  0  0  0  0  0  0  0  0  0  0
   25.1159   19.2593   35.9682 C   0  0  1  0  0  0  0  0  0  0  0  0
   25.2350   15.9867   34.5122 C   0  0  0  0  0  0  0  0  0  0  0  0
   25.3766   17.3406   34.4645 C   0  0  0  0  0  0  0  0  0  0  0  0
   25.6251   17.8412   32.1074 C   0  0  0  0  0  0  0  0  0  0  0  0
   26.1349   21.3899   35.3342 C   0  0  0  0  0  0  0  0  0  0  0  0
   26.4455   19.3322   33.8633 C   0  0  0  0  0  0  0  0  0  0  0  0
   26.3651   19.8746   35.3045 C   0  0  2  0  0  0  0  0  0  0  0  0
   27.5913   19.3659   36.0220 C   0  0  0  0  0  0  0  0  0  0  0  0
   27.6144   19.3049   37.4448 C   0  0  0  0  0  0  0  0  0  0  0  0
   28.7256   18.7659   38.1153 C   0  0  0  0  0  0  0  0  0  0  0  0
   28.7710   18.9747   35.3731 C   0  0  0  0  0  0  0  0  0  0  0  0
   29.8640   18.3036   37.4777 C   0  0  0  0  0  0  0  0  0  0  0  0
   29.8360   18.4401   36.0957 C   0  0  0  0  0  0  0  0  0  0  0  0
   20.8728   19.7733   29.9999 O   0  0  0  0  0  0  0  0  0  0  0  0
   27.1238   19.8371   33.0203 O   0  0  0  0  0  0  0  0  0  0  0  0
   24.0080   20.1677   35.6119 N   0  0  0  0  0  0  0  0  0  0  0  0
   24.8213   15.6822   35.7811 N   0  0  0  0  0  0  0  0  0  0  0  0
   25.0461   17.8560   35.6900 N   0  0  0  0  0  0  0  0  0  0  0  0
   25.8105   18.1729   33.4738 N   0  0  0  0  0  0  0  0  0  0  0  0
   22.6083   17.1576   42.2368 Cl  0  0  0  0  0  0  0  0  0  0  0  0
   28.5224   18.7201   39.8036 Cl  0  0  0  0  0  0  0  0  0  0  0  0
  1 29  1  0
  2  3  2  0
  2  4  1  0
  2 29  1  0
  3  6  1  0
  4  9  2  0
  5  7  2  0
  5  8  1  0
  6 12  2  0
  7 10  1  0
  8 11  2  0
  8 35  1  0
  9 12  1  0
 10 14  1  0
 10 15  2  0
 11 15  1  0
 12 19  1  0
 13 20  1  0
 13 31  1  0
 14 32  2  0
 14 33  1  0
 16 22  1  0
 16 31  1  6
 16 33  1  0
 17 18  1  0
 17 32  1  0
 18 33  1  0
 18 34  1  0
 19 34  1  0
 20 22  1  0
 21 22  1  0
 21 30  2  0
 21 34  1  0
 22 23  1  1
 23 24  1  0
 23 26  1  0
 24 25  2  0
 25 27  1  0
 25 36  1  0
 26 28  2  0
 27 28  1  0
M  END
$$$$

     RDKit          3D

 37 41  0  0  0  0  0  0  0  0999 V2000
   22.1141   16.1111   39.4156 C   0  0  0  0  0  0  0  0  0  0  0  0
   22.6001   17.8857   43.0296 C   0  0  0  0  0  0  0  0  0  0  0  0
   22.8898   17.4590   41.1993 C   0  0  0  0  0  0  0  0  0  0  0  0
   23.1852   16.4795   38.6103 C   0  0  0  0  0  0  0  0  0  0  0  0
   23.0135   20.6193   33.3583 C   0  0  0  0  0  0  0  0  0  0  0  0
   23.5402   21.5406   35.6870 C   0  0  0  0  0  0  0  0  0  0  0  0
   24.0682   17.4324   39.0900 C   0  0  0  0  0  0  0  0  0  0  0  0
   23.9710   17.9118   40.4108 C   0  0  0  0  0  0  0  0  0  0  0  0
   24.0344   21.3938   34.2955 C   0  0  0  0  0  0  0  0  0  0  0  0
   24.0532   22.8282   33.7467 C   0  0  0  0  0  0  0  0  0  0  0  0
   24.7447   18.4343   36.9778 C   0  0  0  0  0  0  0  0  0  0  0  0
   25.0896   17.9313   38.2121 C   0  0  0  0  0  0  0  0  0  0  0  0
   25.2196   18.3010   34.0720 C   0  0  0  0  0  0  0  0  0  0  0  0
   25.4336   20.7247   34.3896 C   0  0  2  0  0  0  0  0  0  0  0  0
   25.6052   15.8468   32.4451 C   0  0  0  0  0  0  0  0  0  0  0  0
   25.9146   18.3894   32.8177 C   0  0  0  0  0  0  0  0  0  0  0  0
   25.7508   18.9205   36.1489 C   0  0  0  0  0  0  0  0  0  0  0  0
   26.0766   17.2165   32.0305 C   0  0  0  0  0  0  0  0  0  0  0  0
   26.4335   19.6145   32.3393 C   0  0  0  0  0  0  0  0  0  0  0  0
   26.2461   20.8893   33.1064 C   0  0  0  0  0  0  0  0  0  0  0  0
   27.0969   18.4740   30.3558 C   0  0  0  0  0  0  0  0  0  0  0  0
   27.0885   18.8743   36.5801 C   0  0  1  0  0  0  0  0  0  0  0  0
   27.0255   19.6480   31.0931 C   0  0  0  0  0  0  0  0  0  0  0  0
   27.3401   18.3553   37.8794 C   0  0  0  0  0  0  0  0  0  0  0  0
   28.1732   19.1974   35.7715 C   0  0  0  0  0  0  0  0  0  0  0  0
   28.6491   18.2833   38.3588 C   0  0  0  0  0  0  0  0  0  0  0  0
   28.8103   19.0176   28.6875 C   0  0  0  0  0  0  0  0  0  0  0  0
   29.4381   19.0850   36.2526 C   0  0  0  0  0  0  0  0  0  0  0  0
   29.7056   18.6282   37.5321 C   0  0  0  0  0  0  0  0  0  0  0  0
   22.3683   19.6913   33.8167 O   0  0  0  0  0  0  0  0  0  0  0  0
   21.9801   16.6255   40.6492 N   0  0  0  0  0  0  0  0  0  0  0  0
   22.8459   21.1130   32.1644 N   0  0  0  0  0  0  0  0  0  0  0  0
   25.3969   19.4002   34.8963 N   0  0  0  0  0  0  0  0  0  0  0  0
   26.3390   17.9198   38.6755 N   0  0  0  0  0  0  0  0  0  0  0  0
   26.6697   17.3172   30.8425 N   0  0  0  0  0  0  0  0  0  0  0  0
   27.6601   18.4456   29.0474 N   0  0  0  0  0  0  0  0  0  0  0  0
   27.4851   20.7614   30.5758 F   0  0  0  0  0  0  0  0  0  0  0  0
  1  4  2  0
  1 31  1  0
  2  3  1  0
  3  8  1  0
  3 31  2  0
  4  7  1  0
  5  9  1  0
  5 30  2  0
  5 32  1  0
  6  9  1  0
  7  8  2  0
  7 12  1  0
  9 10  1  0
 14  9  1  6
 11 12  1  0
 11 17  2  0
 12 34  2  0
 13 16  1  0
 13 33  1  0
 14 20  1  0
 14 33  1  0
 15 18  1  0
 16 18  1  0
 16 19  2  0
 17 22  1  0
 17 33  1  0
 18 35  2  0
 19 20  1  0
 19 23  1  0
 21 23  2  0
 21 35  1  0
 21 36  1  0
 22 24  1  0
 22 25  1  6
 23 37  1  0
 24 26  2  0
 24 34  1  0
 25 28  2  0
 26 29  1  0
 27 36  2  0
 28 29  1  0
M  END
$$$$

     RDKit          3D

 25 27  0  0  0  0  0  0  0  0999 V2000
   22.1272   22.1640   32.2646 C   0  0  0  0  0  0  0  0  0  0  0  0
   22.6568   21.6198   29.8586 C   0  0  2  0  0  0  0  0  0  0  0  0
   22.8274   20.1264   34.5766 C   0  0  0  0  0  0  0  0  0  0  0  0
   22.7228   20.8936   32.1049 C   0  0  0  0  0  0  0  0  0  0  0  0
   23.0439   19.9417   33.0830 C   0  0  0  0  0  0  0  0  0  0  0  0
   23.0151   20.6145   30.7659 C   0  0  0  0  0  0  0  0  0  0  0  0
   23.0222   21.5768   28.4062 C   0  0  0  0  0  0  0  0  0  0  0  0
   23.6420   18.7146   32.6877 C   0  0  0  0  0  0  0  0  0  0  0  0
   23.6217   19.4219   30.3672 C   0  0  0  0  0  0  0  0  0  0  0  0
   23.8865   18.4696   31.3472 C   0  0  0  0  0  0  0  0  0  0  0  0
   25.0805   19.6221   36.8053 C   0  0  0  0  0  0  0  0  0  0  0  0
   25.0516   20.4400   35.6702 C   0  0  0  0  0  0  0  0  0  0  0  0
   26.3469   18.1072   38.3967 C   0  0  0  0  0  0  0  0  0  0  0  0
   26.2794   19.0239   37.1958 C   0  0  0  0  0  0  0  0  0  0  0  0
   26.2248   20.6792   34.9195 C   0  0  0  0  0  0  0  0  0  0  0  0
   27.4408   20.1011   35.3350 C   0  0  0  0  0  0  0  0  0  0  0  0
   27.4649   19.2814   36.4773 C   0  0  0  0  0  0  0  0  0  0  0  0
   22.4998   23.0125   35.1054 O   0  0  0  0  0  0  0  0  0  0  0  0
   24.0285   17.8386   33.5242 O   0  0  0  0  0  0  0  0  0  0  0  0
   24.2422   22.9424   36.6935 O   0  0  0  0  0  0  0  0  0  0  0  0
   28.5992   18.7059   36.9047 O   0  0  0  0  0  0  0  0  0  0  0  0
   22.0069   21.3914   36.8556 N   0  0  0  0  0  0  0  0  0  0  0  0
   23.8481   21.0029   35.1836 N   0  0  0  0  0  0  0  0  0  0  0  0
   21.8944   22.8273   30.7548 S   0  0  0  0  0  0  0  0  0  0  0  0
   23.1488   22.1835   36.0658 S   0  0  0  0  0  0  0  0  0  0  0  0
  1  4  1  0
  1 24  1  0
  2  6  1  0
  2  7  1  1
  2 24  1  0
  3  5  1  0
  3 23  1  0
  4  5  1  0
  4  6  2  0
  5  8  1  0
  6  9  1  0
  8 10  1  0
  8 19  2  0
  9 10  2  0
 11 12  2  0
 11 14  1  0
 12 15  1  0
 12 23  1  0
 13 14  1  0
 14 17  2  0
 15 16  2  0
 16 17  1  0
 17 21  1  0
 18 25  1  0
 20 25  1  0
 22 25  1  0
 23 25  1  0
M  END
$$$$

     RDKit          3D

 34 37  0  0  0  0  0  0  0  0999 V2000
   20.7139   25.3492   32.6302 C   0  0  1  0  0  0  0  0  0  0  0  0
   21.0034   24.1729   33.5350 C   0  0  0  0  0  0  0  0  0  0  0  0
   21.0696   24.4764   34.9954 C   0  0  0  0  0  0  0  0  0  0  0  0
   21.6044   22.7282   31.4126 C   0  0  0  0  0  0  0  0  0  0  0  0
   21.5423   26.6151   32.9861 C   0  0  0  0  0  0  0  0  0  0  0  0
   21.7851   20.1798   31.1423 C   0  0  0  0  0  0  0  0  0  0  0  0
   22.1935   24.0667   31.1707 C   0  0  0  0  0  0  0  0  0  0  0  0
   22.3850   21.4069   31.5291 C   0  0  0  0  0  0  0  0  0  0  0  0
   22.4559   24.7408   35.5267 C   0  0  2  0  0  0  0  0  0  0  0  0
   22.5295   18.9272   31.2656 C   0  0  0  0  0  0  0  0  0  0  0  0
   22.7188   22.2702   35.8598 C   0  0  0  0  0  0  0  0  0  0  0  0
   22.8993   26.1621   35.0672 C   0  0  0  0  0  0  0  0  0  0  0  0
   23.3308   23.5174   35.6209 C   0  0  0  0  0  0  0  0  0  0  0  0
   23.5012   21.1117   35.9374 C   0  0  0  0  0  0  0  0  0  0  0  0
   23.6560   21.3986   32.0492 C   0  0  0  0  0  0  0  0  0  0  0  0
   23.8495   18.9505   31.7549 C   0  0  0  0  0  0  0  0  0  0  0  0
   24.3550   20.2020   32.1851 C   0  0  0  0  0  0  0  0  0  0  0  0
   24.7424   17.0547   34.3227 C   0  0  0  0  0  0  0  0  0  0  0  0
   24.7215   17.7648   31.8494 C   0  0  0  0  0  0  0  0  0  0  0  0
   24.8829   21.1394   35.8590 C   0  0  0  0  0  0  0  0  0  0  0  0
   24.7202   23.5855   35.4871 C   0  0  0  0  0  0  0  0  0  0  0  0
   25.5019   17.2811   30.7556 C   0  0  0  0  0  0  0  0  0  0  0  0
   25.4724   22.3776   35.6665 C   0  0  0  0  0  0  0  0  0  0  0  0
   25.7216   19.8254   35.9846 C   0  0  1  0  0  0  0  0  0  0  0  0
   26.1140   16.1320   31.1574 C   0  0  0  0  0  0  0  0  0  0  0  0
   26.8071   19.9117   37.0394 C   0  0  0  0  0  0  0  0  0  0  0  0
   21.0555   24.9742   31.2544 O   0  0  0  0  0  0  0  0  0  0  0  0
   25.1143   16.0880   35.0196 O   0  0  0  0  0  0  0  0  0  0  0  0
   24.4249   18.2614   34.8218 N   0  0  0  0  0  0  0  0  0  0  0  0
   24.9556   18.6384   36.0385 N   0  0  0  0  0  0  0  0  0  0  0  0
   24.9729   16.9246   32.9036 N   0  0  0  0  0  0  0  0  0  0  0  0
   25.7883   15.9133   32.4437 N   0  0  0  0  0  0  0  0  0  0  0  0
   26.8891   15.2429   30.4344 N   0  0  0  0  0  0  0  0  0  0  0  0
   27.3370   18.7768   37.4270 F   0  0  0  0  0  0  0  0  0  0  0  0
  1  2  1  0
  1  5  1  1
  1 27  1  0
  2  3  1  0
  3  9  1  0
  4  7  1  0
  4  8  1  0
  6  8  2  0
  6 10  1  0
  7 27  1  0
  8 15  1  0
  9 12  1  6
  9 13  1  0
 10 16  2  0
 11 13  2  0
 11 14  1  0
 13 21  1  0
 14 20  2  0
 15 17  2  0
 16 17  1  0
 16 19  1  0
 18 28  2  0
 18 29  1  0
 18 31  1  0
 19 22  1  0
 19 31  1  0
 20 23  1  0
 20 24  1  0
 21 23  2  0
 22 25  1  0
 24 26  1  1
 24 30  1  0
 25 32  1  0
 25 33  2  0
 26 34  1  0
 29 30  1  0
 31 32  1  0
M  END
$$$$

     RDKit          3D

 18 19  0  0  0  0  0  0  0  0999 V2000
   22.4157   24.6969   35.6674 C   0  0  0  0  0  0  0  0  0  0  0  0
   22.5813   21.4393   35.9060 C   0  0  0  0  0  0  0  0  0  0  0  0
   22.9667   20.3197   35.1571 C   0  0  0  0  0  0  0  0  0  0  0  0
   23.0390   23.7713   36.7059 C   0  0  0  0  0  0  0  0  0  0  0  0
   23.4319   22.5160   36.0156 C   0  0  0  0  0  0  0  0  0  0  0  0
   24.2377   20.3273   34.5032 C   0  0  0  0  0  0  0  0  0  0  0  0
   24.5248   17.9502   34.0313 C   0  0  0  0  0  0  0  0  0  0  0  0
   24.6797   22.4971   35.4424 C   0  0  0  0  0  0  0  0  0  0  0  0
   24.9263   16.9332   33.2153 C   0  0  0  0  0  0  0  0  0  0  0  0
   24.7107   19.2642   33.6393 C   0  0  0  0  0  0  0  0  0  0  0  0
   25.0825   21.4231   34.6985 C   0  0  1  0  0  0  0  0  0  0  0  0
   25.3919   19.5640   32.4337 C   0  0  0  0  0  0  0  0  0  0  0  0
   25.5211   17.2116   31.9913 C   0  0  0  0  0  0  0  0  0  0  0  0
   25.7819   18.5252   31.6065 C   0  0  0  0  0  0  0  0  0  0  0  0
   21.4949   24.2358   35.0103 O   0  0  0  0  0  0  0  0  0  0  0  0
   22.8442   25.8381   35.4925 O   0  0  0  0  0  0  0  0  0  0  0  0
   22.1538   19.2907   35.0225 F   0  0  0  0  0  0  0  0  0  0  0  0
   26.4192   21.2394   34.5531 F   0  0  0  0  0  0  0  0  0  0  0  0
  1  4  1  0
  1 15  2  0
  1 16  1  0
  2  3  2  0
  2  5  1  0
  3  6  1  0
  3 17  1  0
  4  5  1  0
  5  8  2  0
  6 10  1  0
  6 11  1  0
  7  9  2  0
  7 10  1  0
  8 11  1  0
  9 13  1  0
 10 12  2  0
 11 18  1  1
 12 14  1  0
 13 14  2  0
M  END
$$$$

     RDKit          3D

 27 29  0  0  0  0  0  0  0  0999 V2000
   21.7169   23.0268   36.1526 C   0  0  0  0  0  0  0  0  0  0  0  0
   21.9491   24.0442   34.9706 C   0  0  0  0  0  0  0  0  0  0  0  0
   22.3274   20.6050   36.4510 C   0  0  0  0  0  0  0  0  0  0  0  0
   22.8000   19.4475   32.3949 C   0  0  0  0  0  0  0  0  0  0  0  0
   23.0430   18.3015   38.1505 C   0  0  0  0  0  0  0  0  0  0  0  0
   23.4320   17.2242   38.9747 C   0  0  0  0  0  0  0  0  0  0  0  0
   23.5070   19.7895   36.1227 C   0  0  1  0  0  0  0  0  0  0  0  0
   23.8755   18.6824   37.0497 C   0  0  0  0  0  0  0  0  0  0  0  0
   23.7260   19.6739   34.5781 C   0  0  0  0  0  0  0  0  0  0  0  0
   24.1022   19.6005   31.7615 C   0  0  0  0  0  0  0  0  0  0  0  0
   24.2429   19.4735   30.3368 C   0  0  0  0  0  0  0  0  0  0  0  0
   24.6371   16.5466   38.7044 C   0  0  0  0  0  0  0  0  0  0  0  0
   24.7533   23.0960   36.2400 C   0  0  0  0  0  0  0  0  0  0  0  0
   25.0719   18.0591   36.8592 C   0  0  0  0  0  0  0  0  0  0  0  0
   25.0470   19.8898   34.0317 C   0  0  0  0  0  0  0  0  0  0  0  0
   25.2236   19.8512   32.5794 C   0  0  0  0  0  0  0  0  0  0  0  0
   25.4811   17.0192   37.6762 C   0  0  0  0  0  0  0  0  0  0  0  0
   25.5365   19.6355   29.7168 C   0  0  0  0  0  0  0  0  0  0  0  0
   26.6532   20.0771   30.5145 C   0  0  0  0  0  0  0  0  0  0  0  0
   26.4947   20.1111   31.9399 C   0  0  0  0  0  0  0  0  0  0  0  0
   21.2925   20.2077   36.8853 O   0  0  0  0  0  0  0  0  0  0  0  0
   21.7285   19.3111   31.6969 O   0  0  0  0  0  0  0  0  0  0  0  0
   26.0583   20.1378   34.8323 O   0  0  0  0  0  0  0  0  0  0  0  0
   22.6759   19.5029   33.7688 N   0  0  0  0  0  0  0  0  0  0  0  0
   22.5358   21.9239   36.2849 N   0  0  0  0  0  0  0  0  0  0  0  0
   23.4360   24.2199   34.6723 N   0  0  0  0  0  0  0  0  0  0  0  0
   24.2058   24.3773   35.8795 N   0  0  0  0  0  0  0  0  0  0  0  0
  1  2  1  0
  1 25  1  0
  2 26  1  0
  7  3  1  6
  3 21  2  0
  3 25  1  0
  4 10  1  0
  4 22  2  0
  4 24  1  0
  5  6  2  0
  5  8  1  0
  6 12  1  0
  7  8  1  0
  7  9  1  0
  8 14  2  0
  9 15  2  0
  9 24  1  0
 10 11  2  0
 10 16  1  0
 11 18  1  0
 12 17  2  0
 13 27  1  0
 14 17  1  0
 15 16  1  0
 15 23  1  0
 16 20  2  0
 18 19  2  0
 19 20  1  0
 26 27  1  0
M  END
$$$$

     RDKit          3D

 36 41  0  0  0  0  0  0  0  0999 V2000
   21.2076   18.7886   29.5361 C   0  0  0  0  0  0  0  0  0  0  0  0
   21.8396   19.4950   30.7593 C   0  0  0  0  0  0  0  0  0  0  0  0
   21.9663   23.3043   31.3561 C   0  0  0  0  0  0  0  0  0  0  0  0
   22.2907   18.7203   28.3870 C   0  0  0  0  0  0  0  0  0  0  0  0
   22.2267   21.8969   31.4022 C   0  0  0  0  0  0  0  0  0  0  0  0
   22.5226   17.5069   39.0808 C   0  0  0  0  0  0  0  0  0  0  0  0
   22.5893   18.2772   37.9064 C   0  0  0  0  0  0  0  0  0  0  0  0
   22.5950   20.1731   27.9946 C   0  0  0  0  0  0  0  0  0  0  0  0
   23.1750   20.6489   35.7443 C   0  0  1  0  0  0  0  0  0  0  0  0
   23.0665   20.9884   29.2232 C   0  0  0  0  0  0  0  0  0  0  0  0
   23.6493   17.1420   39.7443 C   0  0  0  0  0  0  0  0  0  0  0  0
   23.5670   22.9595   34.5870 C   0  0  0  0  0  0  0  0  0  0  0  0
   23.8093   18.6878   37.3692 C   0  0  0  0  0  0  0  0  0  0  0  0
   24.1722   21.6882   35.1970 C   0  0  0  0  0  0  0  0  0  0  0  0
   24.8314   16.5803   33.0905 C   0  0  0  0  0  0  0  0  0  0  0  0
   24.8384   17.3038   34.2573 C   0  0  0  0  0  0  0  0  0  0  0  0
   24.8841   17.5007   39.2435 C   0  0  0  0  0  0  0  0  0  0  0  0
   24.9430   18.2104   38.0856 C   0  0  0  0  0  0  0  0  0  0  0  0
   25.0762   17.1654   31.8766 C   0  0  0  0  0  0  0  0  0  0  0  0
   25.1633   18.6539   34.2183 C   0  0  0  0  0  0  0  0  0  0  0  0
   25.1819   19.4369   35.5223 C   0  0  2  0  0  0  0  0  0  0  0  0
   25.4214   18.5376   31.8031 C   0  0  0  0  0  0  0  0  0  0  0  0
   25.4439   19.3014   32.9835 C   0  0  0  0  0  0  0  0  0  0  0  0
   26.2413   18.5407   37.5934 C   0  0  0  0  0  0  0  0  0  0  0  0
   26.3861   19.1259   36.3544 C   0  0  0  0  0  0  0  0  0  0  0  0
   27.3842   18.1912   38.3531 C   0  0  0  0  0  0  0  0  0  0  0  0
   27.6676   19.3918   35.8348 C   0  0  0  0  0  0  0  0  0  0  0  0
   28.6519   18.4792   37.8427 C   0  0  0  0  0  0  0  0  0  0  0  0
   28.7702   19.0572   36.5930 C   0  0  0  0  0  0  0  0  0  0  0  0
   21.7259   18.0894   27.2089 O   0  0  0  0  0  0  0  0  0  0  0  0
   22.1990   20.2123   34.9368 O   0  0  0  0  0  0  0  0  0  0  0  0
   22.1018   20.9378   30.3627 N   0  0  0  0  0  0  0  0  0  0  0  0
   22.4291   23.8438   32.5071 N   0  0  0  0  0  0  0  0  0  0  0  0
   22.7224   21.6767   32.6369 N   0  0  0  0  0  0  0  0  0  0  0  0
   22.8969   22.8524   33.2831 N   0  0  0  0  0  0  0  0  0  0  0  0
   23.9569   19.4804   36.2210 N   0  0  0  0  0  0  0  0  0  0  0  0
  1  2  1  0
  1  4  1  0
  2 32  1  0
  3  5  1  0
  3 33  1  0
  4  8  1  0
  4 30  1  0
  5 32  1  0
  5 34  2  0
  6  7  2  0
  6 11  1  0
  7 13  1  0
  8 10  1  0
  9 14  1  0
  9 31  1  6
  9 36  1  0
 10 32  1  0
 11 17  2  0
 12 14  1  0
 12 35  1  0
 13 18  2  0
 13 36  1  0
 15 16  2  0
 15 19  1  0
 16 20  1  0
 17 18  1  0
 18 24  1  0
 19 22  2  0
 21 20  1  6
 20 23  2  0
 21 25  1  0
 21 36  1  0
 22 23  1  0
 24 25  2  0
 24 26  1  0
 25 27  1  0
 26 28  1  0
 27 29  1  0
 28 29  2  0
 33 35  1  0
 34 35  1  0
M  END
$$$$

     RDKit          3D

 23 24  0  0  0  0  0  0  0  0999 V2000
   22.3344   19.3506   34.1555 C   0  0  0  0  0  0  0  0  0  0  0  0
   22.3165   20.2857   36.4600 C   0  0  0  0  0  0  0  0  0  0  0  0
   22.6472   19.4759   32.8064 C   0  0  0  0  0  0  0  0  0  0  0  0
   22.6659   20.4495   34.9923 C   0  0  0  0  0  0  0  0  0  0  0  0
   23.1486   20.6830   32.3056 C   0  0  0  0  0  0  0  0  0  0  0  0
   23.1724   21.6317   34.4887 C   0  0  0  0  0  0  0  0  0  0  0  0
   23.3868   21.7497   33.1485 C   0  0  0  0  0  0  0  0  0  0  0  0
   24.9413   15.8991   33.1670 C   0  0  0  0  0  0  0  0  0  0  0  0
   25.4495   17.5876   34.9364 C   0  0  0  0  0  0  0  0  0  0  0  0
   25.5240   17.2521   33.6150 C   0  0  0  0  0  0  0  0  0  0  0  0
   26.0943   18.1007   32.6796 C   0  0  0  0  0  0  0  0  0  0  0  0
   26.0161   18.7422   35.4242 C   0  0  0  0  0  0  0  0  0  0  0  0
   26.1806   20.1514   29.7346 C   0  0  0  0  0  0  0  0  0  0  0  0
   26.5888   19.3096   33.1511 C   0  0  2  0  0  0  0  0  0  0  0  0
   26.6735   19.6202   34.5220 C   0  0  0  0  0  0  0  0  0  0  0  0
   27.4390   18.8868   37.9170 C   0  0  0  0  0  0  0  0  0  0  0  0
   27.3969   20.8487   34.9678 C   0  0  0  0  0  0  0  0  0  0  0  0
   24.7358   18.6011   37.7389 O   0  0  0  0  0  0  0  0  0  0  0  0
   25.7865   20.5986   37.0806 O   0  0  0  0  0  0  0  0  0  0  0  0
   25.4427   20.1606   30.9251 N   0  0  0  0  0  0  0  0  0  0  0  0
   23.6014   20.8174   30.6744 S   0  0  0  0  0  0  0  0  0  0  0  0
   26.0161   18.8386   37.1657 S   0  0  0  0  0  0  0  0  0  0  0  0
   26.6371   20.3939   31.8610 S   0  0  0  0  0  0  0  0  0  0  0  0
  1  3  2  0
  1  4  1  0
  2  4  1  0
  3  5  1  0
  4  6  2  0
  5  7  2  0
  5 21  1  0
  6  7  1  0
  8 10  1  0
  9 10  2  0
  9 12  1  0
 10 11  1  0
 11 14  1  0
 12 15  2  0
 12 22  1  0
 13 20  1  0
 14 15  1  0
 14 23  1  6
 15 17  1  0
 16 22  1  0
 18 22  1  0
 19 22  1  0
 20 21  1  0
 20 23  1  0
M  END
$$$$

     RDKit          3D

 28 31  0  0  0  0  0  0  0  0999 V2000
   22.0036   22.2267   30.6065 C   0  0  0  0  0  0  0  0  0  0  0  0
   22.1966   22.7738   31.9922 C   0  0  0  0  0  0  0  0  0  0  0  0
   22.4029   20.5965   36.4830 C   0  0  0  0  0  0  0  0  0  0  0  0
   22.8494   20.9967   30.6426 C   0  0  1  0  0  0  0  0  0  0  0  0
   23.4473   20.2774   29.4829 C   0  0  0  0  0  0  0  0  0  0  0  0
   23.3994   20.2198   35.4245 C   0  0  2  0  0  0  0  0  0  0  0  0
   23.5930   20.9664   31.8519 C   0  0  0  0  0  0  0  0  0  0  0  0
   23.5770   22.3142   33.9854 C   0  0  0  0  0  0  0  0  0  0  0  0
   24.3141   17.6808   33.2122 C   0  0  0  0  0  0  0  0  0  0  0  0
   24.4376   18.2719   36.5470 C   0  0  0  0  0  0  0  0  0  0  0  0
   24.4844   22.3024   36.1487 C   0  0  0  0  0  0  0  0  0  0  0  0
   24.7185   18.5728   34.2228 C   0  0  0  0  0  0  0  0  0  0  0  0
   25.0620   17.5012   32.0885 C   0  0  0  0  0  0  0  0  0  0  0  0
   25.5833   20.8883   34.3591 C   0  0  0  0  0  0  0  0  0  0  0  0
   25.8914   18.6448   36.7557 C   0  0  0  0  0  0  0  0  0  0  0  0
   25.9888   19.2153   34.2223 C   0  0  2  0  0  0  0  0  0  0  0  0
   26.2484   18.1944   31.9271 C   0  0  0  0  0  0  0  0  0  0  0  0
   26.3868   18.4930   38.0814 C   0  0  0  0  0  0  0  0  0  0  0  0
   26.7482   19.0246   32.9906 C   0  0  0  0  0  0  0  0  0  0  0  0
   26.7342   19.0309   35.6846 C   0  0  0  0  0  0  0  0  0  0  0  0
   27.7470   18.7146   38.3279 C   0  0  0  0  0  0  0  0  0  0  0  0
   28.1139   19.2619   35.9456 C   0  0  0  0  0  0  0  0  0  0  0  0
   28.5978   19.0727   37.2675 C   0  0  0  0  0  0  0  0  0  0  0  0
   23.5462   23.5430   34.2703 O   0  0  0  0  0  0  0  0  0  0  0  0
   23.1698   22.0542   32.6496 N   0  0  0  0  0  0  0  0  0  0  0  0
   23.8529   18.8425   35.3506 N   0  0  0  0  0  0  0  0  0  0  0  0
   24.3138   21.1823   35.0902 N   0  0  0  0  0  0  0  0  0  0  0  0
   30.4010   19.0570   37.4474 Cl  0  0  0  0  0  0  0  0  0  0  0  0
  1  2  1  0
  1  4  1  0
  2 25  1  0
  6  3  1  1
  4  5  1  6
  4  7  1  0
  6 26  1  0
  6 27  1  0
  7 25  1  0
  8 24  2  0
  8 25  1  0
  8 27  1  0
  9 12  1  0
  9 13  2  0
 10 15  1  0
 10 26  1  0
 11 27  1  0
 12 16  1  0
 12 26  1  0
 13 17  1  0
 16 14  1  6
 15 18  1  0
 15 20  2  0
 16 19  1  0
 16 20  1  0
 17 19  2  0
 18 21  2  0
 20 22  1  0
 21 23  1  0
 22 23  2  0
 23 28  1  0
M  END
$$$$

     RDKit          3D

 29 32  0  0  0  0  0  0  0  0999 V2000
   21.0086   18.0950   29.9846 C   0  0  0  0  0  0  0  0  0  0  0  0
   21.2373   18.8333   31.1777 C   0  0  0  0  0  0  0  0  0  0  0  0
   21.9803   18.1031   28.9983 C   0  0  0  0  0  0  0  0  0  0  0  0
   22.3708   19.6373   31.3428 C   0  0  0  0  0  0  0  0  0  0  0  0
   22.4499   21.8392   32.7213 C   0  0  0  0  0  0  0  0  0  0  0  0
   22.5431   18.9445   36.8514 C   0  0  0  0  0  0  0  0  0  0  0  0
   22.5698   20.4244   32.5899 C   0  0  0  0  0  0  0  0  0  0  0  0
   22.7677   18.0773   37.9053 C   0  0  0  0  0  0  0  0  0  0  0  0
   22.9096   19.6835   33.7094 C   0  0  0  0  0  0  0  0  0  0  0  0
   23.1325   18.8870   29.2059 C   0  0  0  0  0  0  0  0  0  0  0  0
   23.2030   20.2943   34.9164 C   0  0  0  0  0  0  0  0  0  0  0  0
   23.1203   21.6955   34.9938 C   0  0  0  0  0  0  0  0  0  0  0  0
   23.3289   19.6300   30.3603 C   0  0  0  0  0  0  0  0  0  0  0  0
   23.5869   19.4739   36.0439 C   0  0  0  0  0  0  0  0  0  0  0  0
   24.1145   17.7229   38.1775 C   0  0  0  0  0  0  0  0  0  0  0  0
   24.9301   19.2093   36.3909 C   0  0  0  0  0  0  0  0  0  0  0  0
   25.1893   18.3129   37.4345 C   0  0  0  0  0  0  0  0  0  0  0  0
   25.5921   16.3112   32.4763 C   0  0  0  0  0  0  0  0  0  0  0  0
   25.5643   17.1807   33.6096 C   0  0  0  0  0  0  0  0  0  0  0  0
   25.9545   16.8390   31.2698 C   0  0  0  0  0  0  0  0  0  0  0  0
   26.1042   18.4985   33.4607 C   0  0  0  0  0  0  0  0  0  0  0  0
   26.0736   19.8538   35.6397 C   0  0  0  0  0  0  0  0  0  0  0  0
   26.4236   18.1421   31.0967 C   0  0  0  0  0  0  0  0  0  0  0  0
   26.4679   18.9218   32.1847 C   0  0  0  0  0  0  0  0  0  0  0  0
   26.6621   20.7959   36.0484 O   0  0  0  0  0  0  0  0  0  0  0  0
   22.0399   22.6982   31.6617 N   0  0  0  0  0  0  0  0  0  0  0  0
   22.7206   22.4368   33.9284 N   0  0  0  0  0  0  0  0  0  0  0  0
   26.3715   19.4044   34.4379 N   0  0  0  0  0  0  0  0  0  0  0  0
   21.9465   17.3911   27.8327 F   0  0  0  0  0  0  0  0  0  0  0  0
  1  2  1  0
  1  3  2  0
  2  4  1  0
  3 10  1  0
  3 29  1  0
  4  7  1  0
  4 13  2  0
  5  7  1  0
  5 26  2  0
  5 27  1  0
  6  8  2  0
  6 14  1  0
  7  9  1  0
  8 15  1  0
  9 11  2  0
 10 13  1  0
 11 12  1  0
 11 14  1  0
 12 27  2  0
 14 16  1  0
 15 17  1  0
 16 17  2  0
 16 22  1  0
 18 19  2  0
 18 20  1  0
 19 21  1  0
 20 23  2  0
 21 24  2  0
 21 28  1  0
 22 25  2  0
 22 28  1  0
 23 24  1  0
M  END
$$$$

     RDKit          3D

 37 40  0  0  0  0  0  0  0  0999 V2000
   21.3037   18.9341   30.2342 C   0  0  0  0  0  0  0  0  0  0  0  0
   21.6493   19.7056   31.3374 C   0  0  0  0  0  0  0  0  0  0  0  0
   22.2057   18.0508   29.6846 C   0  0  0  0  0  0  0  0  0  0  0  0
   22.5823   15.9561   39.6797 C   0  0  0  0  0  0  0  0  0  0  0  0
   22.6597   19.8231   36.2129 C   0  0  0  0  0  0  0  0  0  0  0  0
   22.9461   16.9150   40.6504 C   0  0  0  0  0  0  0  0  0  0  0  0
   22.9176   19.5640   31.9283 C   0  0  0  0  0  0  0  0  0  0  0  0
   23.1999   15.9370   38.4016 C   0  0  0  0  0  0  0  0  0  0  0  0
   23.5018   17.9416   30.2453 C   0  0  0  0  0  0  0  0  0  0  0  0
   23.5687   24.5523   35.0641 C   0  0  0  0  0  0  0  0  0  0  0  0
   23.8523   18.6868   31.3840 C   0  0  0  0  0  0  0  0  0  0  0  0
   23.8960   23.9777   36.4691 C   0  0  0  0  0  0  0  0  0  0  0  0
   24.1542   16.9341   38.0635 C   0  0  0  0  0  0  0  0  0  0  0  0
   23.9645   17.8379   40.3057 C   0  0  0  0  0  0  0  0  0  0  0  0
   23.9905   20.2955   35.8753 C   0  0  1  0  0  0  0  0  0  0  0  0
   24.3935   21.6693   36.2238 C   0  0  0  0  0  0  0  0  0  0  0  0
   24.5136   17.8488   39.0307 C   0  0  0  0  0  0  0  0  0  0  0  0
   24.7393   16.9327   36.5832 C   0  0  2  0  0  0  0  0  0  0  0  0
   24.9815   18.0175   35.7064 C   0  0  0  0  0  0  0  0  0  0  0  0
   25.1650   19.4310   36.0477 C   0  0  1  0  0  0  0  0  0  0  0  0
   25.2292   17.7059   34.3366 C   0  0  0  0  0  0  0  0  0  0  0  0
   25.2589   18.5543   31.9290 C   0  0  0  0  0  0  0  0  0  0  0  0
   25.5527   15.5370   33.2297 C   0  0  0  0  0  0  0  0  0  0  0  0
   26.2606   19.8426   33.7715 C   0  0  0  0  0  0  0  0  0  0  0  0
   26.4090   20.0201   35.2886 C   0  0  2  0  0  0  0  0  0  0  0  0
   27.5203   19.3322   37.4153 C   0  0  0  0  0  0  0  0  0  0  0  0
   27.5577   19.4319   36.0168 C   0  0  0  0  0  0  0  0  0  0  0  0
   28.6473   18.8907   38.1473 C   0  0  0  0  0  0  0  0  0  0  0  0
   28.7330   19.1123   35.3137 C   0  0  0  0  0  0  0  0  0  0  0  0
   29.8460   18.6714   36.0465 C   0  0  0  0  0  0  0  0  0  0  0  0
   29.7870   18.5538   37.4313 C   0  0  0  0  0  0  0  0  0  0  0  0
   25.6659   21.9905   36.2423 O   0  0  0  0  0  0  0  0  0  0  0  0
   26.7748   20.6452   33.0107 O   0  0  0  0  0  0  0  0  0  0  0  0
   23.4430   22.5955   36.5071 N   0  0  0  0  0  0  0  0  0  0  0  0
   24.8144   15.8147   35.7942 N   0  0  0  0  0  0  0  0  0  0  0  0
   25.0984   16.4366   34.1553 N   0  0  0  0  0  0  0  0  0  0  0  0
   25.5131   18.7250   33.3388 N   0  0  0  0  0  0  0  0  0  0  0  0
  1  2  2  0
  1  3  1  0
  2  7  1  0
  3  9  2  0
  4  6  2  0
  4  8  1  0
 15  5  1  1
  6 14  1  0
  7 11  2  0
  8 13  2  0
  9 11  1  0
 10 12  1  0
 11 22  1  0
 12 34  1  0
 13 17  1  0
 13 18  1  0
 14 17  2  0
 15 16  1  0
 15 20  1  0
 16 32  2  0
 16 34  1  0
 18 19  1  0
 18 35  1  6
 20 19  1  6
 19 21  2  0
 20 25  1  0
 21 36  1  0
 21 37  1  0
 22 37  1  0
 23 36  1  0
 24 25  1  0
 24 33  2  0
 24 37  1  0
 25 27  1  1
 26 27  2  0
 26 28  1  0
 27 29  1  0
 28 31  2  0
 29 30  2  0
 30 31  1  0
M  END
$$$$

     RDKit          3D

 29 32  0  0  0  0  0  0  0  0999 V2000
   21.7821   17.7491   29.3810 C   0  0  0  0  0  0  0  0  0  0  0  0
   22.0903   21.1355   29.8954 C   0  0  0  0  0  0  0  0  0  0  0  0
   22.3523   19.9115   35.8989 C   0  0  0  0  0  0  0  0  0  0  0  0
   22.3187   22.3934   32.4110 C   0  0  0  0  0  0  0  0  0  0  0  0
   22.6887   20.3977   31.0513 C   0  0  0  0  0  0  0  0  0  0  0  0
   22.7337   20.9604   32.3114 C   0  0  0  0  0  0  0  0  0  0  0  0
   23.1823   18.2894   37.9368 C   0  0  0  0  0  0  0  0  0  0  0  0
   23.1164   19.0207   30.9207 C   0  0  0  0  0  0  0  0  0  0  0  0
   23.3856   15.7631   39.2587 C   0  0  0  0  0  0  0  0  0  0  0  0
   23.3054   19.1970   36.8929 C   0  0  0  0  0  0  0  0  0  0  0  0
   23.2327   20.2890   33.4192 C   0  0  0  0  0  0  0  0  0  0  0  0
   23.2779   20.7950   34.9096 C   0  0  2  0  0  0  0  0  0  0  0  0
   23.6987   18.3624   32.0545 C   0  0  0  0  0  0  0  0  0  0  0  0
   23.7057   18.9951   33.2674 C   0  0  0  0  0  0  0  0  0  0  0  0
   24.3454   17.6431   38.4330 C   0  0  0  0  0  0  0  0  0  0  0  0
   24.5883   19.4595   36.4945 C   0  0  0  0  0  0  0  0  0  0  0  0
   24.6107   20.4129   35.4757 C   0  0  0  0  0  0  0  0  0  0  0  0
   24.7414   16.3172   32.9825 C   0  0  0  0  0  0  0  0  0  0  0  0
   25.6022   17.8968   37.9360 C   0  0  0  0  0  0  0  0  0  0  0  0
   25.7540   18.9164   37.0088 C   0  0  1  0  0  0  0  0  0  0  0  0
   25.8308   20.8031   35.0087 C   0  0  0  0  0  0  0  0  0  0  0  0
   26.9608   20.3030   35.5750 C   0  0  0  0  0  0  0  0  0  0  0  0
   26.9715   19.3486   36.5204 C   0  0  0  0  0  0  0  0  0  0  0  0
   21.0555   20.7710   29.3626 O   0  0  0  0  0  0  0  0  0  0  0  0
   22.6745   22.1556   29.4237 O   0  0  0  0  0  0  0  0  0  0  0  0
   22.9217   22.1192   35.0125 O   0  0  0  0  0  0  0  0  0  0  0  0
   23.0650   18.3064   29.7741 O   0  0  0  0  0  0  0  0  0  0  0  0
   24.2849   16.7775   39.4219 O   0  0  0  0  0  0  0  0  0  0  0  0
   24.2659   17.0796   31.9086 O   0  0  0  0  0  0  0  0  0  0  0  0
  1 27  1  0
  2  5  1  0
  2 24  2  0
  2 25  1  0
  3 10  1  0
  3 12  1  0
  4  6  1  0
  5  6  2  0
  5  8  1  0
  6 11  1  0
  7 10  1  0
  7 15  1  0
  8 13  2  0
  8 27  1  0
  9 28  1  0
 10 16  2  0
 11 12  1  0
 11 14  2  0
 12 17  1  0
 12 26  1  6
 13 14  1  0
 13 29  1  0
 15 19  2  0
 15 28  1  0
 16 17  1  0
 16 20  1  0
 17 21  2  0
 18 29  1  0
 20 19  1  6
 20 23  1  0
 21 22  1  0
 22 23  2  0
M  END
$$$$

     RDKit          3D

 28 31  0  0  0  0  0  0  0  0999 V2000
   22.3447   19.9476   36.5347 C   0  0  0  0  0  0  0  0  0  0  0  0
   22.4797   22.3554   36.0879 C   0  0  0  0  0  0  0  0  0  0  0  0
   22.8988   20.9421   28.5295 C   0  0  0  0  0  0  0  0  0  0  0  0
   23.0316   18.6900   36.5666 C   0  0  0  0  0  0  0  0  0  0  0  0
   23.1172   21.1044   36.1544 C   0  0  0  0  0  0  0  0  0  0  0  0
   23.0579   25.4840   33.7432 C   0  0  0  0  0  0  0  0  0  0  0  0
   23.4141   20.3352   29.7547 C   0  0  0  0  0  0  0  0  0  0  0  0
   23.3913   20.4916   32.0640 C   0  0  0  0  0  0  0  0  0  0  0  0
   23.2294   23.4526   35.6688 C   0  0  0  0  0  0  0  0  0  0  0  0
   24.1175   18.8161   33.4678 C   0  0  0  0  0  0  0  0  0  0  0  0
   24.0250   19.3156   32.2026 C   0  0  0  0  0  0  0  0  0  0  0  0
   24.3987   18.5860   36.1837 C   0  0  0  0  0  0  0  0  0  0  0  0
   24.2315   19.1668   29.8027 C   0  0  0  0  0  0  0  0  0  0  0  0
   24.5194   18.6357   31.0854 C   0  0  0  0  0  0  0  0  0  0  0  0
   24.5098   21.0016   35.8610 C   0  0  0  0  0  0  0  0  0  0  0  0
   24.6067   23.3622   35.4306 C   0  0  0  0  0  0  0  0  0  0  0  0
   24.8987   17.2663   36.1108 C   0  0  0  0  0  0  0  0  0  0  0  0
   24.9109   17.6999   33.7028 C   0  0  0  0  0  0  0  0  0  0  0  0
   25.1845   19.7265   35.9539 C   0  0  0  0  0  0  0  0  0  0  0  0
   25.4384   17.0155   32.6442 C   0  0  0  0  0  0  0  0  0  0  0  0
   25.2344   17.4289   31.3163 C   0  0  0  0  0  0  0  0  0  0  0  0
   25.2246   22.1338   35.4721 C   0  0  0  0  0  0  0  0  0  0  0  0
   22.9995   26.0011   36.3253 O   0  0  0  0  0  0  0  0  0  0  0  0
   25.0564   16.4425   36.9219 O   0  0  0  0  0  0  0  0  0  0  0  0
   20.9444   24.8949   35.3196 N   0  0  0  0  0  0  0  0  0  0  0  0
   23.0204   20.9514   30.8954 N   0  0  0  0  0  0  0  0  0  0  0  0
   25.0860   17.0629   34.8944 N   0  0  0  0  0  0  0  0  0  0  0  0
   22.5299   25.0649   35.3797 S   0  0  1  0  0  0  0  0  0  0  0  0
  1  4  2  0
  1  5  1  0
  2  5  2  0
  2  9  1  0
  3  7  1  0
  4 12  1  0
  5 15  1  0
 28  6  1  6
  7 13  2  0
  7 26  1  0
  8 11  1  0
  8 26  2  0
  9 16  2  0
  9 28  1  0
 10 11  1  0
 10 18  2  0
 11 14  2  0
 12 17  1  0
 12 19  2  0
 13 14  1  0
 14 21  1  0
 15 19  1  0
 15 22  2  0
 16 22  1  0
 17 24  2  0
 17 27  1  0
 18 20  1  0
 18 27  1  0
 20 21  2  0
 23 28  1  0
 25 28  1  0
M  END
$$$$

     RDKit          3D

 16 17  0  0  0  0  0  0  0  0999 V2000
   22.6313   21.7909   35.8950 C   0  0  0  0  0  0  0  0  0  0  0  0
   23.0916   20.7676   35.0852 C   0  0  0  0  0  0  0  0  0  0  0  0
   23.3779   22.8873   36.1187 C   0  0  0  0  0  0  0  0  0  0  0  0
   24.2716   17.7754   32.7870 C   0  0  0  0  0  0  0  0  0  0  0  0
   24.3713   20.6840   34.6632 C   0  0  0  0  0  0  0  0  0  0  0  0
   24.6594   22.9759   35.5745 C   0  0  0  0  0  0  0  0  0  0  0  0
   24.9360   19.6987   33.9075 C   0  0  0  0  0  0  0  0  0  0  0  0
   25.2655   21.6833   34.9957 C   0  0  0  0  0  0  0  0  0  0  0  0
   25.5818   17.5208   32.5994 C   0  0  2  0  0  0  0  0  0  0  0  0
   26.2559   19.4911   33.6619 C   0  0  0  0  0  0  0  0  0  0  0  0
   26.6353   18.3775   32.9328 C   0  0  0  0  0  0  0  0  0  0  0  0
   23.9748   18.9480   33.3803 N   0  0  0  0  0  0  0  0  0  0  0  0
   23.3877   17.0954   32.2032 F   0  0  0  0  0  0  0  0  0  0  0  0
   25.8110   16.3685   31.9120 F   0  0  0  0  0  0  0  0  0  0  0  0
   22.7132   24.0869   37.1331 Cl  0  0  0  0  0  0  0  0  0  0  0  0
   26.9512   20.9318   34.3935 Cl  0  0  0  0  0  0  0  0  0  0  0  0
  1  2  1  0
  1  3  2  0
  2  5  2  0
  3  6  1  0
  3 15  1  0
  4  9  1  0
  4 12  2  0
  4 13  1  0
  5  7  1  0
  5  8  1  0
  6  8  1  0
  7 10  2  0
  7 12  1  0
  9 11  1  0
  9 14  1  6
 10 11  1  0
 10 16  1  0
M  END
$$$$

     RDKit          3D

 20 23  0  0  0  0  0  0  0  0999 V2000
   22.5352   19.5695   31.6233 C   0  0  0  0  0  0  0  0  0  0  0  0
   23.1577   20.5325   32.6273 C   0  0  0  0  0  0  0  0  0  0  0  0
   23.6254   19.4686   29.5376 C   0  0  0  0  0  0  0  0  0  0  0  0
   23.7338   19.0192   30.9101 C   0  0  2  0  0  0  0  0  0  0  0  0
   24.2948   18.4627   36.9204 C   0  0  0  0  0  0  0  0  0  0  0  0
   24.5341   17.8877   31.5195 C   0  0  0  0  0  0  0  0  0  0  0  0
   24.5078   19.8744   33.0324 C   0  0  1  0  0  0  0  0  0  0  0  0
   24.8483   19.9334   30.5439 C   0  0  2  0  0  0  0  0  0  0  0  0
   25.0475   19.3359   31.8713 C   0  0  2  0  0  0  0  0  0  0  0  0
   25.4635   18.1768   36.0589 C   0  0  0  0  0  0  0  0  0  0  0  0
   25.5126   20.7592   33.7356 C   0  0  0  0  0  0  0  0  0  0  0  0
   26.4507   20.5529   35.9431 C   0  0  0  0  0  0  0  0  0  0  0  0
   26.6771   19.0687   36.3281 C   0  0  1  0  0  0  0  0  0  0  0  0
   26.9561   18.9928   37.7142 C   0  0  0  0  0  0  0  0  0  0  0  0
   26.7946   19.5340   33.6524 C   0  0  0  0  0  0  0  0  0  0  0  0
   26.9402   20.8022   34.5739 C   0  0  1  0  0  0  0  0  0  0  0  0
   23.1842   18.6602   36.3100 O   0  0  0  0  0  0  0  0  0  0  0  0
   24.2851   18.5346   38.1662 O   0  0  0  0  0  0  0  0  0  0  0  0
   24.6511   20.5198   29.5761 O   0  0  0  0  0  0  0  0  0  0  0  0
   26.4929   19.6244   32.2924 N   0  0  0  0  0  0  0  0  0  0  0  0
  1  2  1  0
  1  4  1  0
  2  7  1  0
  4  3  1  6
  3 19  1  0
  4  6  1  0
  4  8  1  0
  5 10  1  0
  5 17  2  0
  5 18  1  0
  6  9  1  0
  7  9  1  0
  7 11  1  6
  8  9  1  0
  8 19  1  1
  9 20  1  1
 10 13  1  0
 11 16  1  0
 12 13  1  0
 16 12  1  1
 13 14  1  1
 15 16  1  0
 15 20  1  0
M  END
$$$$

     RDKit          3D

 37 41  0  0  0  0  0  0  0  0999 V2000
   20.9257   17.5579   29.6528 C   0  0  0  0  0  0  0  0  0  0  0  0
   21.5551   18.9424   29.5439 C   0  0  0  0  0  0  0  0  0  0  0  0
   21.4853   19.8436   30.6416 C   0  0  0  0  0  0  0  0  0  0  0  0
   21.9458   22.1723   31.6518 C   0  0  0  0  0  0  0  0  0  0  0  0
   22.0960   17.6866   42.3198 C   0  0  0  0  0  0  0  0  0  0  0  0
   22.1979   19.3117   28.3389 C   0  0  0  0  0  0  0  0  0  0  0  0
   22.0533   21.1436   30.4997 C   0  0  0  0  0  0  0  0  0  0  0  0
   22.2998   16.0238   40.4624 C   0  0  0  0  0  0  0  0  0  0  0  0
   22.6363   17.2816   40.9189 C   0  0  0  0  0  0  0  0  0  0  0  0
   22.6759   21.5081   29.2768 C   0  0  0  0  0  0  0  0  0  0  0  0
   22.8270   15.4915   39.3061 C   0  0  0  0  0  0  0  0  0  0  0  0
   22.7570   18.9301   36.4986 C   0  0  0  0  0  0  0  0  0  0  0  0
   22.7253   20.5953   28.2211 C   0  0  0  0  0  0  0  0  0  0  0  0
   23.0301   22.3231   32.7515 C   0  0  0  0  0  0  0  0  0  0  0  0
   23.4524   18.1072   40.1129 C   0  0  0  0  0  0  0  0  0  0  0  0
   23.6526   16.3324   38.4773 C   0  0  0  0  0  0  0  0  0  0  0  0
   23.8818   17.6242   38.8976 C   0  0  0  0  0  0  0  0  0  0  0  0
   24.2022   19.0479   36.8862 C   0  0  2  0  0  0  0  0  0  0  0  0
   24.8999   17.3196   32.1305 C   0  0  0  0  0  0  0  0  0  0  0  0
   24.8274   18.6900   32.2009 C   0  0  0  0  0  0  0  0  0  0  0  0
   24.8811   19.3182   33.4242 C   0  0  0  0  0  0  0  0  0  0  0  0
   24.7743   20.7780   33.5983 C   0  0  0  0  0  0  0  0  0  0  0  0
   25.0518   16.5577   33.3237 C   0  0  0  0  0  0  0  0  0  0  0  0
   25.1080   17.1827   34.5624 C   0  0  0  0  0  0  0  0  0  0  0  0
   25.0427   18.5627   34.6026 C   0  0  0  0  0  0  0  0  0  0  0  0
   25.2120   19.3743   35.8231 C   0  0  2  0  0  0  0  0  0  0  0  0
   26.6405   19.2488   36.2449 C   0  0  0  0  0  0  0  0  0  0  0  0
   26.9425   18.7775   37.5369 C   0  0  0  0  0  0  0  0  0  0  0  0
   27.6796   19.5540   35.3975 C   0  0  0  0  0  0  0  0  0  0  0  0
   28.2480   18.6099   37.9643 C   0  0  0  0  0  0  0  0  0  0  0  0
   28.9935   19.4547   35.8312 C   0  0  0  0  0  0  0  0  0  0  0  0
   29.2641   18.9680   37.1147 C   0  0  0  0  0  0  0  0  0  0  0  0
   23.4730   23.4010   33.1321 O   0  0  0  0  0  0  0  0  0  0  0  0
   25.9510   18.4156   38.3912 O   0  0  0  0  0  0  0  0  0  0  0  0
   23.3905   21.1539   33.3887 N   0  0  0  0  0  0  0  0  0  0  0  0
   24.6588   18.3929   38.0296 N   0  0  0  0  0  0  0  0  0  0  0  0
   30.9450   18.8829   37.5317 Cl  0  0  0  0  0  0  0  0  0  0  0  0
  1  2  1  0
  2  3  2  0
  2  6  1  0
  3  7  1  0
  4  7  1  0
  4 14  1  0
  5  9  1  0
  6 13  2  0
  7 10  2  0
  8  9  2  0
  8 11  1  0
  9 15  1  0
 10 13  1  0
 11 16  2  0
 18 12  1  6
 14 33  2  0
 14 35  1  0
 15 17  2  0
 16 17  1  0
 17 36  1  0
 18 26  1  0
 18 36  1  0
 19 20  2  0
 19 23  1  0
 20 21  1  0
 21 22  1  0
 21 25  2  0
 22 35  1  0
 23 24  2  0
 24 25  1  0
 26 25  1  6
 26 27  1  0
 27 28  2  0
 27 29  1  0
 28 30  1  0
 28 34  1  0
 29 31  2  0
 30 32  2  0
 31 32  1  0
 32 37  1  0
 34 36  1  0
M  END
$$$$

     RDKit          3D

 22 23  0  0  0  0  0  0  0  0999 V2000
   22.3424   19.1141   34.1494 C   0  0  0  0  0  0  0  0  0  0  0  0
   22.4054   19.5191   32.7741 C   0  0  0  0  0  0  0  0  0  0  0  0
   22.6008   19.5566   36.5888 C   0  0  0  0  0  0  0  0  0  0  0  0
   22.7391   20.0220   35.1590 C   0  0  0  0  0  0  0  0  0  0  0  0
   22.7403   20.8070   32.4778 C   0  0  0  0  0  0  0  0  0  0  0  0
   23.1236   21.3185   34.8613 C   0  0  0  0  0  0  0  0  0  0  0  0
   23.0852   21.7324   33.4939 C   0  0  2  0  0  0  0  0  0  0  0  0
   23.3206   23.1120   33.0785 C   0  0  0  0  0  0  0  0  0  0  0  0
   23.5400   22.2524   35.9097 C   0  0  0  0  0  0  0  0  0  0  0  0
   24.6220   16.1975   32.7377 C   0  0  0  0  0  0  0  0  0  0  0  0
   25.1753   17.6438   34.6334 C   0  0  0  0  0  0  0  0  0  0  0  0
   25.3501   17.3828   33.3025 C   0  0  0  0  0  0  0  0  0  0  0  0
   25.7206   18.7173   35.2625 C   0  0  0  0  0  0  0  0  0  0  0  0
   26.1736   18.2434   32.5501 C   0  0  0  0  0  0  0  0  0  0  0  0
   26.4018   18.0032   31.1372 C   0  0  0  0  0  0  0  0  0  0  0  0
   26.5264   19.5931   34.4824 C   0  0  0  0  0  0  0  0  0  0  0  0
   26.7677   19.3565   33.1351 C   0  0  0  0  0  0  0  0  0  0  0  0
   25.5782   20.4045   37.1223 O   0  0  0  0  0  0  0  0  0  0  0  0
   25.9540   18.1602   37.7781 O   0  0  0  0  0  0  0  0  0  0  0  0
   23.6576   18.6517   37.0379 N   0  0  0  0  0  0  0  0  0  0  0  0
   25.2967   19.0165   36.8685 S   0  0  0  0  0  0  0  0  0  0  0  0
   27.1208   20.6938   34.9978 F   0  0  0  0  0  0  0  0  0  0  0  0
  1  2  1  0
  1  4  1  0
  2  5  2  0
  3  4  1  0
  3 20  1  0
  4  6  2  0
  5  7  1  0
  6  7  1  0
  6  9  1  0
  7  8  1  1
 10 12  1  0
 11 12  2  0
 11 13  1  0
 12 14  1  0
 13 16  2  0
 13 21  1  0
 14 15  1  0
 14 17  2  0
 16 17  1  0
 16 22  1  0
 18 21  1  0
 19 21  1  0
 20 21  1  0
M  END
$$$$

     RDKit          3D

 23 26  0  0  0  0  0  0  0  0999 V2000
   22.7143   22.2068   36.1233 C   0  0  0  0  0  0  0  0  0  0  0  0
   22.7603   23.5877   36.0468 C   0  0  0  0  0  0  0  0  0  0  0  0
   23.1853   19.9555   34.9997 C   0  0  0  0  0  0  0  0  0  0  0  0
   23.1584   21.4666   34.9864 C   0  0  0  0  0  0  0  0  0  0  0  0
   23.1457   24.2484   34.8822 C   0  0  0  0  0  0  0  0  0  0  0  0
   23.6189   22.1469   33.8557 C   0  0  0  0  0  0  0  0  0  0  0  0
   23.5732   23.5146   33.7657 C   0  0  0  0  0  0  0  0  0  0  0  0
   24.4482   18.1554   33.1402 C   0  0  0  0  0  0  0  0  0  0  0  0
   25.0583   17.7158   31.9297 C   0  0  0  0  0  0  0  0  0  0  0  0
   25.1503   18.9748   33.9984 C   0  0  0  0  0  0  0  0  0  0  0  0
   24.9852   19.1381   36.3947 C   0  0  0  0  0  0  0  0  0  0  0  0
   26.3405   18.1386   31.6456 C   0  0  0  0  0  0  0  0  0  0  0  0
   26.4357   19.0869   36.8177 C   0  0  0  0  0  0  0  0  0  0  0  0
   26.4832   19.3034   33.7090 C   0  0  1  0  0  0  0  0  0  0  0  0
   26.7165   18.5334   38.1044 C   0  0  0  0  0  0  0  0  0  0  0  0
   27.0745   18.9215   32.4811 C   0  0  0  0  0  0  0  0  0  0  0  0
   27.2245   20.2068   34.6661 C   0  0  0  0  0  0  0  0  0  0  0  0
   27.5135   19.4900   35.9754 C   0  0  0  0  0  0  0  0  0  0  0  0
   28.0701   18.4127   38.5362 C   0  0  0  0  0  0  0  0  0  0  0  0
   28.8552   19.3045   36.3947 C   0  0  0  0  0  0  0  0  0  0  0  0
   29.1260   18.7882   37.6868 C   0  0  0  0  0  0  0  0  0  0  0  0
   24.1098   18.9352   37.1793 O   0  0  0  0  0  0  0  0  0  0  0  0
   24.5461   19.4672   35.1737 N   0  0  0  0  0  0  0  0  0  0  0  0
  1  2  2  0
  1  4  1  0
  2  5  1  0
  3  4  1  0
  3 23  1  0
  4  6  2  0
  5  7  2  0
  6  7  1  0
  8  9  1  0
  8 10  2  0
  9 12  1  0
 10 14  1  0
 10 23  1  0
 11 13  1  0
 11 22  2  0
 11 23  1  0
 12 16  2  0
 13 15  2  0
 13 18  1  0
 14 16  1  0
 14 17  1  6
 15 19  1  0
 17 18  1  0
 18 20  2  0
 19 21  2  0
 20 21  1  0
M  END
$$$$

     RDKit          3D

 32 35  0  0  0  0  0  0  0  0999 V2000
   22.1652   18.7161   37.5090 C   0  0  0  0  0  0  0  0  0  0  0  0
   22.0393   19.4536   36.3461 C   0  0  0  0  0  0  0  0  0  0  0  0
   22.3838   20.7210   32.0975 C   0  0  0  0  0  0  0  0  0  0  0  0
   22.5608   19.9512   33.2544 C   0  0  0  0  0  0  0  0  0  0  0  0
   22.5569   22.0955   32.1163 C   0  0  0  0  0  0  0  0  0  0  0  0
   23.1443   17.3880   41.4914 C   0  0  0  0  0  0  0  0  0  0  0  0
   23.1805   19.8078   35.5786 C   0  0  0  0  0  0  0  0  0  0  0  0
   22.9758   20.6231   34.4042 C   0  0  0  0  0  0  0  0  0  0  0  0
   23.1382   21.9970   34.4404 C   0  0  0  0  0  0  0  0  0  0  0  0
   23.0034   22.7479   33.2317 C   0  0  0  0  0  0  0  0  0  0  0  0
   23.4466   17.4769   39.1685 C   0  0  0  0  0  0  0  0  0  0  0  0
   23.4144   18.2969   37.9359 C   0  0  1  0  0  0  0  0  0  0  0  0
   24.4961   19.4241   35.8368 C   0  0  0  0  0  0  0  0  0  0  0  0
   25.1595   15.8901   33.2356 C   0  0  0  0  0  0  0  0  0  0  0  0
   25.2039   17.1405   33.8884 C   0  0  0  0  0  0  0  0  0  0  0  0
   25.6513   15.7694   31.9454 C   0  0  0  0  0  0  0  0  0  0  0  0
   25.6991   19.9664   34.9525 C   0  0  0  0  0  0  0  0  0  0  0  0
   25.7898   18.2109   33.1936 C   0  0  0  0  0  0  0  0  0  0  0  0
   26.2255   16.8442   31.2819 C   0  0  1  0  0  0  0  0  0  0  0  0
   26.2627   18.0814   31.9215 C   0  0  0  0  0  0  0  0  0  0  0  0
   26.9562   16.4344   29.9080 C   0  0  0  0  0  0  0  0  0  0  0  0
   26.7632   19.3489   31.4743 C   0  0  0  0  0  0  0  0  0  0  0  0
   28.2664   20.0005   29.6075 C   0  0  0  0  0  0  0  0  0  0  0  0
   28.9873   19.3967   28.4467 C   0  0  0  0  0  0  0  0  0  0  0  0
   23.2743   16.1967   39.0513 O   0  0  0  0  0  0  0  0  0  0  0  0
   23.2368   18.0553   40.2632 O   0  0  0  0  0  0  0  0  0  0  0  0
   26.3402   20.9634   35.2868 O   0  0  0  0  0  0  0  0  0  0  0  0
   27.0975   19.4757   30.1748 O   0  0  0  0  0  0  0  0  0  0  0  0
   25.9634   19.4764   33.6770 N   0  0  0  0  0  0  0  0  0  0  0  0
   26.5371   20.1993   32.6389 N   0  0  0  0  0  0  0  0  0  0  0  0
   24.8356   18.5378   37.1472 S   0  0  0  0  0  0  0  0  0  0  0  0
   22.3170   22.7815   30.9838 F   0  0  0  0  0  0  0  0  0  0  0  0
  1  2  2  0
  1 12  1  0
  2  7  1  0
  3  4  2  0
  3  5  1  0
  4  8  1  0
  5 10  2  0
  5 32  1  0
  6 26  1  0
  7  8  1  0
  7 13  2  0
  8  9  2  0
  9 10  1  0
 12 11  1  6
 11 25  2  0
 11 26  1  0
 12 31  1  0
 13 17  1  0
 13 31  1  0
 14 15  1  0
 14 16  2  0
 15 18  2  0
 16 19  1  0
 17 27  2  0
 17 29  1  0
 18 20  1  0
 18 29  1  0
 19 20  1  0
 19 21  1  1
 20 22  2  0
 22 28  1  0
 22 30  1  0
 23 24  1  0
 23 28  1  0
 29 30  1  0
M  END
$$$$

     RDKit          3D

 41 46  0  0  0  0  0  0  0  0999 V2000
   20.9605   15.9732   42.0227 C   0  0  0  0  0  0  0  0  0  0  0  0
   21.5788   19.0477   31.9254 C   0  0  0  0  0  0  0  0  0  0  0  0
   21.7604   19.5608   30.6396 C   0  0  0  0  0  0  0  0  0  0  0  0
   22.0499   15.9228   39.7207 C   0  0  0  0  0  0  0  0  0  0  0  0
   21.9879   16.4238   41.0460 C   0  0  0  0  0  0  0  0  0  0  0  0
   22.3085   21.4689   36.5453 C   0  0  0  0  0  0  0  0  0  0  0  0
   22.5113   19.3369   32.8431 C   0  0  0  0  0  0  0  0  0  0  0  0
   22.6760   22.8093   36.4272 C   0  0  0  0  0  0  0  0  0  0  0  0
   22.9328   17.4045   41.4330 C   0  0  0  0  0  0  0  0  0  0  0  0
   22.9090   20.3173   30.2753 C   0  0  0  0  0  0  0  0  0  0  0  0
   22.9625   16.4263   38.7755 C   0  0  0  0  0  0  0  0  0  0  0  0
   22.9837   20.5310   35.6861 C   0  0  0  0  0  0  0  0  0  0  0  0
   23.0343   20.7539   28.8515 C   0  0  0  0  0  0  0  0  0  0  0  0
   23.5680   23.2198   35.4608 C   0  0  0  0  0  0  0  0  0  0  0  0
   23.9246   17.3785   39.1717 C   0  0  0  0  0  0  0  0  0  0  0  0
   23.9075   17.8424   40.5036 C   0  0  0  0  0  0  0  0  0  0  0  0
   23.7137   19.9640   32.6299 C   0  0  0  0  0  0  0  0  0  0  0  0
   23.9058   20.5171   31.2596 C   0  0  0  0  0  0  0  0  0  0  0  0
   23.9394   20.9428   34.7516 C   0  0  0  0  0  0  0  0  0  0  0  0
   24.1852   22.2917   34.6402 C   0  0  0  0  0  0  0  0  0  0  0  0
   24.5515   18.1022   36.8279 C   0  0  0  0  0  0  0  0  0  0  0  0
   24.9402   17.9422   38.1728 C   0  0  0  0  0  0  0  0  0  0  0  0
   24.7280   20.0078   33.7928 C   0  0  2  0  0  0  0  0  0  0  0  0
   25.4015   17.5202   33.5607 C   0  0  0  0  0  0  0  0  0  0  0  0
   25.4852   18.6174   35.8424 C   0  0  0  0  0  0  0  0  0  0  0  0
   26.1763   17.9481   32.3484 C   0  0  0  0  0  0  0  0  0  0  0  0
   26.1498   20.4007   33.1898 C   0  0  0  0  0  0  0  0  0  0  0  0
   26.2354   18.3319   38.6070 C   0  0  0  0  0  0  0  0  0  0  0  0
   26.5969   19.3062   32.1595 C   0  0  0  0  0  0  0  0  0  0  0  0
   26.7914   18.9986   36.2586 C   0  0  0  0  0  0  0  0  0  0  0  0
   27.1379   18.8756   37.6375 C   0  0  0  0  0  0  0  0  0  0  0  0
   27.2787   17.3581   30.2054 C   0  0  0  0  0  0  0  0  0  0  0  0
   27.3816   19.6713   31.0665 C   0  0  0  0  0  0  0  0  0  0  0  0
   27.7305   18.7006   30.0745 C   0  0  0  0  0  0  0  0  0  0  0  0
   19.9527   16.7810   42.7639 O   0  0  0  0  0  0  0  0  0  0  0  0
   20.7314   14.7114   42.1788 O   0  0  0  0  0  0  0  0  0  0  0  0
   22.8875   21.9522   28.5394 O   0  0  0  0  0  0  0  0  0  0  0  0
   23.5412   19.9065   28.0596 O   0  0  0  0  0  0  0  0  0  0  0  0
   25.0266   18.6617   34.4471 N   0  0  0  0  0  0  0  0  0  0  0  0
   26.5047   17.0482   31.3630 N   0  0  0  0  0  0  0  0  0  0  0  0
   28.4136   19.1829   28.9595 F   0  0  0  0  0  0  0  0  0  0  0  0
  1  5  1  0
  1 35  2  0
  1 36  1  0
  2  3  2  0
  2  7  1  0
  3 10  1  0
  4  5  2  0
  4 11  1  0
  5  9  1  0
  6  8  2  0
  6 12  1  0
  7 17  2  0
  8 14  1  0
  9 16  2  0
 10 13  1  0
 10 18  2  0
 11 15  2  0
 12 19  2  0
 13 37  2  0
 13 38  1  0
 14 20  2  0
 15 16  1  0
 15 22  1  0
 17 18  1  0
 23 17  1  6
 19 20  1  0
 19 23  1  0
 21 22  2  0
 21 25  1  0
 22 28  1  0
 23 27  1  0
 23 39  1  0
 24 26  1  0
 24 39  1  0
 25 30  2  0
 25 39  1  0
 26 29  2  0
 26 40  1  0
 27 29  1  0
 28 31  2  0
 29 33  1  0
 30 31  1  0
 32 34  1  0
 32 40  1  0
 33 34  2  0
 34 41  1  0
M  END
$$$$

     RDKit          3D

 30 32  0  0  0  0  0  0  0  0999 V2000
   22.5527   20.3819   34.3951 C   0  0  0  0  0  0  0  0  0  0  0  0
   22.6371   20.9663   30.6335 C   0  0  0  0  0  0  0  0  0  0  0  0
   22.5057   21.2054   32.0077 C   0  0  0  0  0  0  0  0  0  0  0  0
   22.8296   20.1995   32.9444 C   0  0  2  0  0  0  0  0  0  0  0  0
   23.1211   16.5299   39.9472 C   0  0  0  0  0  0  0  0  0  0  0  0
   23.1208   19.7250   30.1565 C   0  0  0  0  0  0  0  0  0  0  0  0
   23.3322   15.8877   38.7114 C   0  0  0  0  0  0  0  0  0  0  0  0
   23.3593   18.9461   32.4808 C   0  0  0  0  0  0  0  0  0  0  0  0
   23.5998   17.5845   40.4464 C   0  0  0  0  0  0  0  0  0  0  0  0
   23.4777   18.7182   31.0826 C   0  0  0  0  0  0  0  0  0  0  0  0
   24.4142   16.4018   38.0030 C   0  0  0  0  0  0  0  0  0  0  0  0
   24.6934   19.7132   36.7481 C   0  0  0  0  0  0  0  0  0  0  0  0
   24.6763   20.7437   35.8453 C   0  0  1  0  0  0  0  0  0  0  0  0
   24.8175   15.8784   36.7125 C   0  0  0  0  0  0  0  0  0  0  0  0
   25.0114   17.4712   38.6405 C   0  0  0  0  0  0  0  0  0  0  0  0
   25.9214   19.1437   37.0778 C   0  0  0  0  0  0  0  0  0  0  0  0
   25.7824   21.1128   35.1502 C   0  0  0  0  0  0  0  0  0  0  0  0
   27.0889   19.5605   36.4252 C   0  0  0  0  0  0  0  0  0  0  0  0
   26.9797   20.5291   35.4427 C   0  0  0  0  0  0  0  0  0  0  0  0
   27.2749   17.8238   38.6173 C   0  0  0  0  0  0  0  0  0  0  0  0
   28.3806   18.0991   37.9230 C   0  0  0  0  0  0  0  0  0  0  0  0
   28.3020   18.9456   36.8667 C   0  0  0  0  0  0  0  0  0  0  0  0
   30.2125   17.9650   36.0219 C   0  0  0  0  0  0  0  0  0  0  0  0
   22.2526   21.6177   36.8343 O   0  0  0  0  0  0  0  0  0  0  0  0
   23.0589   23.1765   35.1543 O   0  0  0  0  0  0  0  0  0  0  0  0
   29.4265   19.0972   36.1742 O   0  0  0  0  0  0  0  0  0  0  0  0
   23.4621   20.9299   35.1489 N   0  0  0  0  0  0  0  0  0  0  0  0
   26.0875   18.1626   38.0321 N   0  0  0  0  0  0  0  0  0  0  0  0
   23.1021   21.7008   35.5222 S   0  0  0  0  0  0  0  0  0  0  0  0
   24.0093   17.6016   30.6487 F   0  0  0  0  0  0  0  0  0  0  0  0
  4  1  1  6
  1 27  1  0
  2  3  2  0
  2  6  1  0
  3  4  1  0
  4  8  1  0
  5  7  1  0
  5  9  2  0
  6 10  1  0
  7 11  1  0
  8 10  2  0
 10 30  1  0
 11 14  1  0
 11 15  2  3
 12 13  1  0
 12 16  2  0
 13 17  1  0
 13 27  1  6
 15 28  1  0
 16 18  1  0
 16 28  1  0
 17 19  2  0
 18 19  1  0
 18 22  1  0
 20 21  1  0
 20 28  1  0
 21 22  2  0
 22 26  1  0
 23 26  1  0
 24 29  1  0
 25 29  1  0
 27 29  1  0
M  END
$$$$

     RDKit          3D

 23 22  0  0  0  0  0  0  0  0999 V2000
   21.1861   17.6679   29.4268 C   0  0  0  0  0  0  0  0  0  0  0  0
   21.8804   25.7092   36.9174 C   0  0  0  0  0  0  0  0  0  0  0  0
   22.4718   18.3956   29.5209 C   0  0  0  0  0  0  0  0  0  0  0  0
   23.1680   25.1428   37.1606 C   0  0  0  0  0  0  0  0  0  0  0  0
   23.3554   17.9975   30.6598 C   0  0  0  0  0  0  0  0  0  0  0  0
   23.3183   23.7907   36.4659 C   0  0  0  0  0  0  0  0  0  0  0  0
   23.6567   21.1289   35.5489 C   0  0  0  0  0  0  0  0  0  0  0  0
   24.6536   18.6902   30.7590 C   0  0  0  0  0  0  0  0  0  0  0  0
   24.6719   23.3504   36.2361 C   0  0  0  0  0  0  0  0  0  0  0  0
   24.7376   22.1078   35.5172 C   0  0  1  0  0  0  0  0  0  0  0  0
   25.0166   17.3742   32.8904 C   0  0  0  0  0  0  0  0  0  0  0  0
   25.3976   15.8921   32.7370 C   0  0  0  0  0  0  0  0  0  0  0  0
   25.5595   17.8764   34.2682 C   0  0  0  0  0  0  0  0  0  0  0  0
   25.7087   18.1608   31.7758 C   0  0  2  0  0  0  0  0  0  0  0  0
   25.7904   20.2689   36.7434 C   0  0  0  0  0  0  0  0  0  0  0  0
   25.8954   21.2614   35.6867 C   0  0  1  0  0  0  0  0  0  0  0  0
   26.6271   19.2287   32.3558 C   0  0  2  0  0  0  0  0  0  0  0  0
   26.9150   20.3228   31.4730 C   0  0  0  0  0  0  0  0  0  0  0  0
   26.7857   20.9969   34.5771 C   0  0  0  0  0  0  0  0  0  0  0  0
   27.4070   18.8702   33.5710 C   0  0  0  0  0  0  0  0  0  0  0  0
   27.5135   19.7176   34.7473 C   0  0  0  0  0  0  0  0  0  0  0  0
   21.7153   26.9493   36.7940 O   0  0  0  0  0  0  0  0  0  0  0  0
   26.6406   17.3668   31.0056 O   0  0  0  0  0  0  0  0  0  0  0  0
  1  3  1  0
  2  4  1  0
  2 22  2  0
  3  5  1  0
  4  6  1  0
  5  8  2  3
  6  9  1  0
 10  7  1  1
  8 14  1  0
  9 10  1  0
 10 16  1  0
 11 12  1  0
 11 13  1  0
 11 14  1  0
 14 17  1  0
 14 23  1  6
 16 15  1  6
 16 19  1  0
 17 18  1  6
 17 20  1  0
 19 21  1  0
 20 21  1  0
M  END
$$$$

     RDKit          3D

 17 18  0  0  0  0  0  0  0  0999 V2000
   22.6334   24.9477   35.7613 C   0  0  0  0  0  0  0  0  0  0  0  0
   22.8986   21.7885   35.5060 C   0  0  0  0  0  0  0  0  0  0  0  0
   23.3389   20.6722   34.8065 C   0  0  0  0  0  0  0  0  0  0  0  0
   23.2665   23.9332   36.7197 C   0  0  0  0  0  0  0  0  0  0  0  0
   23.7778   22.7264   35.9542 C   0  0  0  0  0  0  0  0  0  0  0  0
   24.6881   20.4963   34.5282 C   0  0  0  0  0  0  0  0  0  0  0  0
   24.9345   18.0528   34.1072 C   0  0  0  0  0  0  0  0  0  0  0  0
   25.1397   19.3813   33.7109 C   0  0  0  0  0  0  0  0  0  0  0  0
   25.1537   22.5759   35.6921 C   0  0  0  0  0  0  0  0  0  0  0  0
   25.3995   17.0218   33.2754 C   0  0  0  0  0  0  0  0  0  0  0  0
   25.6233   21.4724   34.9623 C   0  0  0  0  0  0  0  0  0  0  0  0
   25.7755   19.6548   32.5096 C   0  0  0  0  0  0  0  0  0  0  0  0
   26.0432   17.3309   32.0828 C   0  0  0  0  0  0  0  0  0  0  0  0
   26.2151   18.6432   31.6660 C   0  0  0  0  0  0  0  0  0  0  0  0
   21.7073   24.5821   35.0082 O   0  0  0  0  0  0  0  0  0  0  0  0
   22.9914   26.1120   35.8998 O   0  0  0  0  0  0  0  0  0  0  0  0
   22.4408   19.8029   34.3926 F   0  0  0  0  0  0  0  0  0  0  0  0
  1  4  1  0
  1 15  2  0
  1 16  1  0
  2  3  2  0
  2  5  1  0
  3  6  1  0
  3 17  1  0
  4  5  1  0
  5  9  2  0
  6  8  1  0
  6 11  2  0
  7  8  2  0
  7 10  1  0
  8 12  1  0
  9 11  1  0
 10 13  2  0
 12 14  2  0
 13 14  1  0
M  END
$$$$

     RDKit          3D

 31 34  0  0  0  0  0  0  0  0999 V2000
   20.2774   15.3117   42.9370 C   0  0  0  0  0  0  0  0  0  0  0  0
   20.9990   16.5310   41.9652 C   0  0  0  0  0  0  0  0  0  0  0  0
   21.9578   16.1874   40.7623 C   0  0  0  0  0  0  0  0  0  0  0  0
   22.2065   18.6997   30.1249 C   0  0  0  0  0  0  0  0  0  0  0  0
   22.2427   20.5367   36.4994 C   0  0  0  0  0  0  0  0  0  0  0  0
   22.7012   18.7429   31.5603 C   0  0  0  0  0  0  0  0  0  0  0  0
   22.5297   21.2162   29.8936 C   0  0  0  0  0  0  0  0  0  0  0  0
   23.1360   19.8303   29.4892 C   0  0  2  0  0  0  0  0  0  0  0  0
   23.2491   16.9178   41.0565 C   0  0  1  0  0  0  0  0  0  0  0  0
   23.2142   19.4325   34.4230 C   0  0  2  0  0  0  0  0  0  0  0  0
   23.2661   19.7538   27.9642 C   0  0  0  0  0  0  0  0  0  0  0  0
   23.4239   19.7759   35.9283 C   0  0  2  0  0  0  0  0  0  0  0  0
   23.5981   18.4161   36.6912 C   0  0  0  0  0  0  0  0  0  0  0  0
   24.0030   17.4445   39.8741 C   0  0  0  0  0  0  0  0  0  0  0  0
   24.1705   18.8998   31.4526 C   0  0  1  0  0  0  0  0  0  0  0  0
   24.2187   16.3494   38.7736 C   0  0  0  0  0  0  0  0  0  0  0  0
   24.6349   18.9778   33.9686 C   0  0  1  0  0  0  0  0  0  0  0  0
   24.4765   19.5893   30.1496 C   0  0  2  0  0  0  0  0  0  0  0  0
   24.7693   20.5094   35.8416 C   0  0  0  0  0  0  0  0  0  0  0  0
   25.0856   18.1760   37.1782 C   0  0  1  0  0  0  0  0  0  0  0  0
   24.9905   19.2858   32.5752 C   0  0  1  0  0  0  0  0  0  0  0  0
   25.2633   16.7453   37.7209 C   0  0  0  0  0  0  0  0  0  0  0  0
   25.6409   19.5101   35.0609 C   0  0  1  0  0  0  0  0  0  0  0  0
   25.6348   20.5687   30.1924 C   0  0  0  0  0  0  0  0  0  0  0  0
   26.0969   18.4037   35.9972 C   0  0  0  0  0  0  0  0  0  0  0  0
   26.3893   19.2814   32.1568 C   0  0  1  0  0  0  0  0  0  0  0  0
   26.4663   17.8896   32.1685 C   0  0  0  0  0  0  0  0  0  0  0  0
   26.6779   20.3439   31.2653 C   0  0  0  0  0  0  0  0  0  0  0  0
   22.0530   19.6400   27.3372 O   0  0  0  0  0  0  0  0  0  0  0  0
   22.7455   20.4031   33.6732 O   0  0  0  0  0  0  0  0  0  0  0  0
   22.9851   18.0906   41.8874 N   0  0  0  0  0  0  0  0  0  0  0  0
  1  2  1  0
  2  3  1  0
  3  9  1  0
  4  6  1  0
  4  8  1  0
 12  5  1  1
 15  6  1  1
  8  7  1  6
  8 11  1  0
  8 18  1  0
  9 14  1  0
  9 31  1  1
 10 12  1  0
 10 17  1  0
 10 30  1  6
 11 29  1  0
 12 13  1  0
 12 19  1  0
 13 20  1  0
 14 16  1  0
 15 18  1  0
 15 21  1  0
 16 22  1  0
 17 21  1  0
 17 23  1  1
 18 24  1  1
 19 23  1  0
 20 22  1  6
 20 25  1  0
 21 26  1  6
 23 25  1  1
 24 28  1  0
 26 27  1  6
 26 28  1  0
M  END
$$$$

     RDKit          3D

 29 32  0  0  0  0  0  0  0  0999 V2000
   21.3886   20.2729   30.4159 C   0  0  0  0  0  0  0  0  0  0  0  0
   21.7511   19.3460   29.4852 C   0  0  0  0  0  0  0  0  0  0  0  0
   21.8581   22.4272   31.6212 C   0  0  0  0  0  0  0  0  0  0  0  0
   22.0197   21.5341   30.3815 C   0  0  0  0  0  0  0  0  0  0  0  0
   22.4208   19.7152   28.3086 C   0  0  0  0  0  0  0  0  0  0  0  0
   22.7726   21.9364   29.2430 C   0  0  0  0  0  0  0  0  0  0  0  0
   22.9691   21.0125   28.2118 C   0  0  0  0  0  0  0  0  0  0  0  0
   23.0088   22.2142   32.6930 C   0  0  0  0  0  0  0  0  0  0  0  0
   23.4881   20.7718   36.1829 C   0  0  0  0  0  0  0  0  0  0  0  0
   24.3382   18.5402   32.3987 C   0  0  0  0  0  0  0  0  0  0  0  0
   24.5474   17.1923   32.2247 C   0  0  0  0  0  0  0  0  0  0  0  0
   24.6098   19.1377   33.6110 C   0  0  0  0  0  0  0  0  0  0  0  0
   24.4894   20.5558   33.8427 C   0  0  2  0  0  0  0  0  0  0  0  0
   24.7614   20.6496   35.3714 C   0  0  2  0  0  0  0  0  0  0  0  0
   24.9914   16.4304   33.3058 C   0  0  0  0  0  0  0  0  0  0  0  0
   25.0394   18.3978   34.7018 C   0  0  0  0  0  0  0  0  0  0  0  0
   25.2430   17.0196   34.5682 C   0  0  0  0  0  0  0  0  0  0  0  0
   25.2886   19.3222   35.8479 C   0  0  1  0  0  0  0  0  0  0  0  0
   26.5635   18.7674   37.9004 C   0  0  0  0  0  0  0  0  0  0  0  0
   26.5739   19.1630   36.5566 C   0  0  0  0  0  0  0  0  0  0  0  0
   27.7687   18.5633   38.5885 C   0  0  0  0  0  0  0  0  0  0  0  0
   27.7710   19.3126   35.8892 C   0  0  0  0  0  0  0  0  0  0  0  0
   28.9746   18.7164   37.9121 C   0  0  0  0  0  0  0  0  0  0  0  0
   28.9888   19.1046   36.5519 C   0  0  0  0  0  0  0  0  0  0  0  0
   22.7915   19.8052   36.6221 O   0  0  0  0  0  0  0  0  0  0  0  0
   23.1370   21.9529   36.2893 O   0  0  0  0  0  0  0  0  0  0  0  0
   23.6422   23.1972   33.1327 O   0  0  0  0  0  0  0  0  0  0  0  0
   23.1999   20.9981   33.2309 N   0  0  0  0  0  0  0  0  0  0  0  0
   25.0894   14.8279   32.9092 Cl  0  0  0  0  0  0  0  0  0  0  0  0
  1  2  2  0
  1  4  1  0
  2  5  1  0
  3  4  1  0
  3  8  1  0
  4  6  2  0
  5  7  2  0
  6  7  1  0
  8 27  2  0
  8 28  1  0
 14  9  1  1
  9 25  2  0
  9 26  1  0
 10 11  2  0
 10 12  1  0
 11 15  1  0
 12 13  1  0
 12 16  2  0
 13 14  1  0
 13 28  1  1
 14 18  1  0
 15 17  2  0
 15 29  1  0
 16 17  1  0
 16 18  1  0
 18 20  1  6
 19 20  1  0
 19 21  1  0
 20 22  2  0
 21 23  2  0
 22 24  1  0
 23 24  1  0
M  END
$$$$

     RDKit          3D

 18 19  0  0  0  0  0  0  0  0999 V2000
   21.7780   19.3781   31.2312 C   0  0  0  0  0  0  0  0  0  0  0  0
   22.6251   19.5385   33.5969 C   0  0  0  0  0  0  0  0  0  0  0  0
   22.5019   20.0511   32.2692 C   0  0  0  0  0  0  0  0  0  0  0  0
   22.9441   21.3107   32.0023 C   0  0  0  0  0  0  0  0  0  0  0  0
   23.3345   19.8419   36.0034 C   0  0  0  0  0  0  0  0  0  0  0  0
   23.2341   20.3014   34.5740 C   0  0  0  0  0  0  0  0  0  0  0  0
   23.6905   21.5822   34.2115 C   0  0  0  0  0  0  0  0  0  0  0  0
   23.5602   22.1052   32.9365 C   0  0  0  0  0  0  0  0  0  0  0  0
   25.2708   17.1836   32.8071 C   0  0  0  0  0  0  0  0  0  0  0  0
   25.3414   17.5898   34.1374 C   0  0  0  0  0  0  0  0  0  0  0  0
   26.0046   17.8717   31.8522 C   0  0  0  0  0  0  0  0  0  0  0  0
   26.1008   18.6992   34.4532 C   0  0  0  0  0  0  0  0  0  0  0  0
   26.7703   18.9721   32.1865 C   0  0  0  0  0  0  0  0  0  0  0  0
   26.7952   19.3808   33.4960 C   0  0  0  0  0  0  0  0  0  0  0  0
   26.3665   20.7104   35.9948 O   0  0  0  0  0  0  0  0  0  0  0  0
   27.0041   18.5950   36.8383 O   0  0  0  0  0  0  0  0  0  0  0  0
   24.4724   19.0713   36.5576 N   0  0  0  0  0  0  0  0  0  0  0  0
   26.0143   19.3171   36.0361 S   0  0  0  0  0  0  0  0  0  0  0  0
  1  3  1  0
  2  3  2  0
  2  6  1  0
  3  4  1  0
  4  8  2  0
  5  6  1  0
  5 17  1  0
  6  7  2  0
  7  8  1  0
  9 10  2  0
  9 11  1  0
 10 12  1  0
 11 13  2  0
 12 14  2  0
 12 18  1  0
 13 14  1  0
 15 18  1  0
 16 18  1  0
 17 18  1  0
M  END
$$$$

     RDKit          3D

 39 43  0  0  0  0  0  0  0  0999 V2000
   21.3717   17.9807   29.4923 C   0  0  0  0  0  0  0  0  0  0  0  0
   21.6028   18.6669   30.7376 C   0  0  0  0  0  0  0  0  0  0  0  0
   21.9220   19.4161   36.4520 C   0  0  0  0  0  0  0  0  0  0  0  0
   21.9437   23.2405   36.2948 C   0  0  0  0  0  0  0  0  0  0  0  0
   21.9798   18.4919   28.3028 C   0  0  0  0  0  0  0  0  0  0  0  0
   22.0093   18.7426   37.7031 C   0  0  0  0  0  0  0  0  0  0  0  0
   22.1283   24.2015   37.3175 C   0  0  0  0  0  0  0  0  0  0  0  0
   22.4559   19.7867   30.7796 C   0  0  0  0  0  0  0  0  0  0  0  0
   22.4986   17.1925   40.3953 C   0  0  0  0  0  0  0  0  0  0  0  0
   22.6283   20.4901   32.0490 C   0  0  1  0  0  0  0  0  0  0  0  0
   22.4646   21.9433   32.0353 C   0  0  0  0  0  0  0  0  0  0  0  0
   22.6500   22.6467   33.2688 C   0  0  0  0  0  0  0  0  0  0  0  0
   22.8871   19.5672   28.3841 C   0  0  0  0  0  0  0  0  0  0  0  0
   22.7447   19.7738   33.2458 C   0  0  0  0  0  0  0  0  0  0  0  0
   22.9477   20.4727   34.4358 C   0  0  0  0  0  0  0  0  0  0  0  0
   22.9384   21.9148   34.4302 C   0  0  2  0  0  0  0  0  0  0  0  0
   23.1004   19.6027   35.6479 C   0  0  0  0  0  0  0  0  0  0  0  0
   23.1072   20.2279   29.5988 C   0  0  0  0  0  0  0  0  0  0  0  0
   23.0950   22.7307   35.6474 C   0  0  0  0  0  0  0  0  0  0  0  0
   23.2248   18.1862   38.1580 C   0  0  0  0  0  0  0  0  0  0  0  0
   24.4095   18.2066   37.2744 C   0  0  0  0  0  0  0  0  0  0  0  0
   24.3255   18.8831   35.9458 C   0  0  0  0  0  0  0  0  0  0  0  0
   24.4098   23.1218   36.0620 C   0  0  0  0  0  0  0  0  0  0  0  0
   25.6015   16.8156   33.4769 C   0  0  0  0  0  0  0  0  0  0  0  0
   25.6774   17.5221   37.7820 C   0  0  0  0  0  0  0  0  0  0  0  0
   25.6582   18.2157   33.6049 C   0  0  0  0  0  0  0  0  0  0  0  0
   25.5082   18.9291   34.9438 C   0  0  1  0  0  0  0  0  0  0  0  0
   25.7351   16.1693   32.2202 C   0  0  0  0  0  0  0  0  0  0  0  0
   25.9488   16.9555   31.0349 C   0  0  0  0  0  0  0  0  0  0  0  0
   25.8489   18.9520   32.4187 C   0  0  0  0  0  0  0  0  0  0  0  0
   25.9778   18.3677   31.1654 C   0  0  0  0  0  0  0  0  0  0  0  0
   21.8220   17.8575   27.0778 O   0  0  0  0  0  0  0  0  0  0  0  0
   22.0923   22.6535   30.9917 O   0  0  0  0  0  0  0  0  0  0  0  0
   22.3677   23.9834   33.2858 O   0  0  0  0  0  0  0  0  0  0  0  0
   23.4265   17.7040   39.4175 O   0  0  0  0  0  0  0  0  0  0  0  0
   26.1469   17.8705   38.9472 O   0  0  0  0  0  0  0  0  0  0  0  0
   26.1390   20.1612   35.0097 O   0  0  0  0  0  0  0  0  0  0  0  0
   23.4073   24.5396   37.6769 N   0  0  0  0  0  0  0  0  0  0  0  0
   24.4911   23.9953   37.0870 N   0  0  0  0  0  0  0  0  0  0  0  0
  1  2  2  0
  1  5  1  0
  2  8  1  0
  3  6  2  0
  3 17  1  0
  4  7  2  0
  4 19  1  0
  5 13  2  0
  5 32  1  0
  6 20  1  0
  7 38  1  0
 10  8  1  1
  8 18  2  0
  9 35  1  0
 10 11  1  0
 10 14  1  0
 11 12  2  0
 11 33  1  0
 12 16  1  0
 12 34  1  0
 13 18  1  0
 14 15  2  0
 15 16  1  0
 15 17  1  0
 16 19  1  1
 17 22  2  0
 19 23  2  0
 20 21  2  0
 20 35  1  0
 21 22  1  0
 21 25  1  0
 22 27  1  0
 23 39  1  0
 24 26  2  0
 24 28  1  0
 25 36  1  0
 26 27  1  0
 26 30  1  0
 27 37  1  6
 28 29  2  0
 29 31  1  0
 30 31  2  0
 38 39  2  0
M  END
$$$$

     RDKit          3D

 29 32  0  0  0  0  0  0  0  0999 V2000
   21.1529   19.4691   30.1694 C   0  0  2  0  0  0  0  0  0  0  0  0
   21.4594   19.8329   28.8478 C   0  0  0  0  0  0  0  0  0  0  0  0
   21.7903   20.4258   31.2129 C   0  0  2  0  0  0  0  0  0  0  0  0
   21.9927   18.4136   29.6016 C   0  0  0  0  0  0  0  0  0  0  0  0
   22.6069   21.5012   30.4231 C   0  0  0  0  0  0  0  0  0  0  0  0
   22.7576   19.7506   32.1862 C   0  0  2  0  0  0  0  0  0  0  0  0
   23.0163   20.9273   29.0654 C   0  0  1  0  0  0  0  0  0  0  0  0
   23.4553   18.5813   29.9108 C   0  0  2  0  0  0  0  0  0  0  0  0
   23.4152   20.7809   33.0046 C   0  0  0  0  0  0  0  0  0  0  0  0
   23.6317   18.7563   31.4183 C   0  0  0  0  0  0  0  0  0  0  0  0
   23.9726   19.8036   29.1450 C   0  0  0  0  0  0  0  0  0  0  0  0
   23.9722   23.2333   34.3574 C   0  0  0  0  0  0  0  0  0  0  0  0
   24.1871   24.2023   35.5316 C   0  0  0  0  0  0  0  0  0  0  0  0
   24.5533   16.7391   32.9748 C   0  0  0  0  0  0  0  0  0  0  0  0
   24.6566   18.4836   34.8260 C   0  0  0  0  0  0  0  0  0  0  0  0
   24.7799   21.9556   34.5580 C   0  0  0  0  0  0  0  0  0  0  0  0
   25.3465   17.3730   34.0652 C   0  0  0  0  0  0  0  0  0  0  0  0
   25.2557   19.7962   34.4428 C   0  0  1  0  0  0  0  0  0  0  0  0
   26.7257   19.9730   34.4953 C   0  0  0  0  0  0  0  0  0  0  0  0
   26.9714   19.4206   37.0434 C   0  0  0  0  0  0  0  0  0  0  0  0
   27.5255   19.4521   35.7152 C   0  0  0  0  0  0  0  0  0  0  0  0
   27.7985   19.0154   38.1203 C   0  0  0  0  0  0  0  0  0  0  0  0
   28.8485   19.0570   35.5040 C   0  0  0  0  0  0  0  0  0  0  0  0
   29.1626   18.6944   37.9199 C   0  0  0  0  0  0  0  0  0  0  0  0
   29.6895   18.6744   36.6450 C   0  0  0  0  0  0  0  0  0  0  0  0
   21.9514   20.7499   28.2159 O   0  0  0  0  0  0  0  0  0  0  0  0
   23.5678   23.7334   33.2685 O   0  0  0  0  0  0  0  0  0  0  0  0
   25.6767   21.9155   35.3558 O   0  0  0  0  0  0  0  0  0  0  0  0
   24.4395   20.7917   33.9571 N   0  0  0  0  0  0  0  0  0  0  0  0
  1  2  1  6
  1  3  1  0
  1  4  1  0
  2 26  1  0
  3  5  1  6
  3  6  1  0
  4  8  1  0
  5  7  1  0
  6  9  1  6
  6 10  1  0
  7 11  1  0
  7 26  1  1
  8 10  1  1
  8 11  1  0
  9 29  1  0
 12 13  1  0
 12 16  1  0
 12 27  2  0
 14 17  1  0
 15 17  1  0
 18 15  1  6
 16 28  2  0
 16 29  1  0
 18 19  1  0
 18 29  1  0
 19 21  1  0
 20 21  2  0
 20 22  1  0
 21 23  1  0
 22 24  2  0
 23 25  2  0
 24 25  1  0
M  END
$$$$

     RDKit          3D

 44 49  0  0  0  0  0  0  0  0999 V2000
   21.2207   16.0260   42.0286 C   0  0  0  0  0  0  0  0  0  0  0  0
   22.3075   15.8628   39.6567 C   0  0  0  0  0  0  0  0  0  0  0  0
   22.2411   16.4894   40.9385 C   0  0  0  0  0  0  0  0  0  0  0  0
   22.3215   17.8798   29.1111 C   0  0  0  0  0  0  0  0  0  0  0  0
   22.3535   18.7479   28.0102 C   0  0  0  0  0  0  0  0  0  0  0  0
   22.7086   18.3186   30.3759 C   0  0  0  0  0  0  0  0  0  0  0  0
   22.8141   20.0358   28.2122 C   0  0  0  0  0  0  0  0  0  0  0  0
   23.1796   17.4691   41.2346 C   0  0  0  0  0  0  0  0  0  0  0  0
   23.0873   19.6469   30.6139 C   0  0  0  0  0  0  0  0  0  0  0  0
   23.0449   19.5140   36.8800 C   0  0  0  0  0  0  0  0  0  0  0  0
   23.1822   20.4819   29.4903 C   0  0  0  0  0  0  0  0  0  0  0  0
   23.2577   16.3009   38.6671 C   0  0  0  0  0  0  0  0  0  0  0  0
   23.2630   20.1006   31.9872 C   0  0  0  0  0  0  0  0  0  0  0  0
   23.2307   20.8056   36.0289 C   0  0  0  0  0  0  0  0  0  0  0  0
   24.1948   17.3013   39.0160 C   0  0  0  0  0  0  0  0  0  0  0  0
   24.1272   17.8642   40.2919 C   0  0  0  0  0  0  0  0  0  0  0  0
   24.5185   20.7615   32.4350 C   0  0  0  0  0  0  0  0  0  0  0  0
   24.5020   21.0360   33.9315 C   0  0  1  0  0  0  0  0  0  0  0  0
   25.0760   18.2408   36.8316 C   0  0  0  0  0  0  0  0  0  0  0  0
   25.2971   17.8096   38.1369 C   0  0  0  0  0  0  0  0  0  0  0  0
   25.6444   18.0013   33.7827 C   0  0  0  0  0  0  0  0  0  0  0  0
   25.7416   20.4724   34.5754 C   0  0  0  0  0  0  0  0  0  0  0  0
   26.0866   16.8439   31.6568 C   0  0  0  0  0  0  0  0  0  0  0  0
   26.1686   18.6525   36.0053 C   0  0  0  0  0  0  0  0  0  0  0  0
   26.3522   17.9464   32.4683 C   0  0  0  0  0  0  0  0  0  0  0  0
   26.7403   16.6673   30.4415 C   0  0  0  0  0  0  0  0  0  0  0  0
   27.4553   18.7930   36.5862 C   0  0  0  0  0  0  0  0  0  0  0  0
   27.2355   18.9384   32.0297 C   0  0  0  0  0  0  0  0  0  0  0  0
   27.6684   17.6156   30.0155 C   0  0  0  0  0  0  0  0  0  0  0  0
   27.6194   18.4134   37.9576 C   0  0  0  0  0  0  0  0  0  0  0  0
   27.9105   18.7691   30.7942 C   0  0  0  0  0  0  0  0  0  0  0  0
   28.6014   19.1926   35.8512 C   0  0  0  0  0  0  0  0  0  0  0  0
   28.8994   18.4640   38.5740 C   0  0  0  0  0  0  0  0  0  0  0  0
   29.8503   19.2155   36.4621 C   0  0  0  0  0  0  0  0  0  0  0  0
   29.9774   18.9056   37.8373 C   0  0  0  0  0  0  0  0  0  0  0  0
   19.9521   16.9582   42.9020 O   0  0  0  0  0  0  0  0  0  0  0  0
   20.6850   14.9226   41.7951 O   0  0  0  0  0  0  0  0  0  0  0  0
   21.8305   18.4033   26.6445 O   0  0  0  0  0  0  0  0  0  0  0  0
   23.7959   18.3866   36.3870 O   0  0  0  0  0  0  0  0  0  0  0  0
   24.4867   22.5328   34.0456 O   0  0  0  0  0  0  0  0  0  0  0  0
   24.7882   17.1792   34.0394 O   0  0  0  0  0  0  0  0  0  0  0  0
   23.3205   20.4325   34.5921 N   0  0  0  0  0  0  0  0  0  0  0  0
   25.9180   19.0073   34.6888 N   0  0  0  0  0  0  0  0  0  0  0  0
   26.5485   17.9228   38.6807 N   0  0  0  0  0  0  0  0  0  0  0  0
  1  3  1  0
  1 36  2  0
  1 37  1  0
  2  3  2  0
  2 12  1  0
  3  8  1  0
  4  5  1  0
  4  6  1  0
  5  7  2  0
  5 38  1  0
  6  9  2  0
  7 11  1  0
  8 16  2  0
  9 11  1  0
  9 13  1  0
 10 14  1  0
 10 39  1  0
 12 15  2  0
 13 17  1  0
 14 42  1  0
 15 16  1  0
 15 20  1  0
 17 18  1  0
 18 22  1  0
 18 40  1  6
 18 42  1  0
 19 20  1  0
 19 24  2  0
 19 39  1  0
 20 44  2  0
 21 25  1  0
 21 41  2  0
 21 43  1  0
 22 43  1  0
 23 25  2  0
 23 26  1  0
 24 27  1  0
 24 43  1  0
 25 28  1  0
 26 29  2  0
 27 30  2  0
 27 32  1  0
 28 31  2  0
 29 31  1  0
 30 33  1  0
 30 44  1  0
 32 34  2  0
 33 35  2  0
 34 35  1  0
M  END
$$$$

     RDKit          3D

 31 34  0  0  0  0  0  0  0  0999 V2000
   22.2446   19.5215   35.9694 C   0  0  0  0  0  0  0  0  0  0  0  0
   22.4105   20.6327   34.9343 C   0  0  2  0  0  0  0  0  0  0  0  0
   22.4515   21.2580   32.4899 C   0  0  0  0  0  0  0  0  0  0  0  0
   22.3673   21.9397   30.0408 C   0  0  0  0  0  0  0  0  0  0  0  0
   22.6951   20.3106   33.4661 C   0  0  0  0  0  0  0  0  0  0  0  0
   22.5958   20.9506   31.1001 C   0  0  1  0  0  0  0  0  0  0  0  0
   23.1775   19.0652   33.0861 C   0  0  0  0  0  0  0  0  0  0  0  0
   23.0299   19.6580   30.7344 C   0  0  0  0  0  0  0  0  0  0  0  0
   23.0162   20.2469   28.4271 C   0  0  0  0  0  0  0  0  0  0  0  0
   23.3352   18.7103   31.7416 C   0  0  0  0  0  0  0  0  0  0  0  0
   23.3660   19.2226   36.9595 C   0  0  0  0  0  0  0  0  0  0  0  0
   24.4984   16.8017   32.4704 C   0  0  0  0  0  0  0  0  0  0  0  0
   24.6550   19.7254   36.4757 C   0  0  0  0  0  0  0  0  0  0  0  0
   24.7037   20.8531   35.6542 C   0  0  0  0  0  0  0  0  0  0  0  0
   25.8357   19.1050   36.8276 C   0  0  0  0  0  0  0  0  0  0  0  0
   25.8902   21.2846   35.1207 C   0  0  0  0  0  0  0  0  0  0  0  0
   27.0785   19.5469   36.3033 C   0  0  0  0  0  0  0  0  0  0  0  0
   27.0663   20.6011   35.4098 C   0  0  0  0  0  0  0  0  0  0  0  0
   28.3115   18.8889   36.7832 C   0  0  0  0  0  0  0  0  0  0  0  0
   30.2857   17.9866   36.5540 C   0  0  0  0  0  0  0  0  0  0  0  0
   21.9536   23.0337   36.5206 O   0  0  0  0  0  0  0  0  0  0  0  0
   21.9615   23.1253   30.2927 O   0  0  0  0  0  0  0  0  0  0  0  0
   23.2653   24.1107   34.6524 O   0  0  0  0  0  0  0  0  0  0  0  0
   23.8032   17.4729   31.4020 O   0  0  0  0  0  0  0  0  0  0  0  0
   24.4144   23.6477   36.7295 O   0  0  0  0  0  0  0  0  0  0  0  0
   29.2196   18.5650   35.8881 O   0  0  0  0  0  0  0  0  0  0  0  0
   22.5646   21.5224   28.7348 N   0  0  0  0  0  0  0  0  0  0  0  0
   23.2196   19.3350   29.4003 N   0  0  0  0  0  0  0  0  0  0  0  0
   23.2120   19.9258   27.1205 N   0  0  0  0  0  0  0  0  0  0  0  0
   23.4791   21.4967   35.4483 N   0  0  0  0  0  0  0  0  0  0  0  0
   23.2226   22.9865   35.9991 S   0  0  0  0  0  0  0  0  0  0  0  0
  1  2  1  0
  1 11  1  0
  2  5  1  6
  2 30  1  0
  3  5  2  0
  6  3  1  1
  4  6  1  0
  4 22  2  0
  4 27  1  0
  5  7  1  0
  6  8  1  0
  7 10  2  0
  8 10  1  0
  8 28  2  0
  9 27  1  0
  9 28  1  0
  9 29  2  0
 10 24  1  0
 11 13  1  0
 12 24  1  0
 13 14  2  0
 13 15  1  0
 14 16  1  0
 14 30  1  0
 15 17  2  0
 16 18  2  0
 17 18  1  0
 17 19  1  0
 19 26  1  0
 20 26  1  0
 21 31  1  0
 23 31  1  0
 25 31  1  0
 30 31  1  0
M  END
$$$$

     RDKit          3D

 31 34  0  0  0  0  0  0  0  0999 V2000
   21.4181   19.9867   29.6976 C   0  0  0  0  0  0  0  0  0  0  0  0
   22.3223   22.4380   36.4408 C   0  0  0  0  0  0  0  0  0  0  0  0
   22.5458   20.4052   30.6000 C   0  0  0  0  0  0  0  0  0  0  0  0
   22.5657   21.3988   31.5148 C   0  0  0  0  0  0  0  0  0  0  0  0
   22.8132   23.7183   36.5307 C   0  0  0  0  0  0  0  0  0  0  0  0
   22.9812   19.1260   35.1679 C   0  0  0  0  0  0  0  0  0  0  0  0
   23.0638   21.4001   36.0720 C   0  0  0  0  0  0  0  0  0  0  0  0
   23.7531   21.3509   32.2746 C   0  0  0  0  0  0  0  0  0  0  0  0
   24.1517   23.9632   36.2163 C   0  0  0  0  0  0  0  0  0  0  0  0
   24.3607   21.5947   35.6729 C   0  0  0  0  0  0  0  0  0  0  0  0
   24.4862   19.1834   34.8975 C   0  0  1  0  0  0  0  0  0  0  0  0
   24.6399   20.4228   31.8522 C   0  0  1  0  0  0  0  0  0  0  0  0
   24.8569   16.8476   34.2141 C   0  0  0  0  0  0  0  0  0  0  0  0
   24.9425   22.8954   35.7899 C   0  0  0  0  0  0  0  0  0  0  0  0
   25.0758   18.1948   33.9802 C   0  0  0  0  0  0  0  0  0  0  0  0
   25.2963   15.8737   33.3311 C   0  0  0  0  0  0  0  0  0  0  0  0
   25.2444   20.4650   35.1374 C   0  0  2  0  0  0  0  0  0  0  0  0
   25.8251   18.5876   32.8779 C   0  0  0  0  0  0  0  0  0  0  0  0
   25.9297   20.0780   32.6008 C   0  0  2  0  0  0  0  0  0  0  0  0
   25.9955   16.2480   32.1895 C   0  0  0  0  0  0  0  0  0  0  0  0
   26.2713   17.5999   31.9511 C   0  0  0  0  0  0  0  0  0  0  0  0
   26.2748   20.1970   36.3094 C   0  0  0  0  0  0  0  0  0  0  0  0
   27.1304   15.6122   30.0164 C   0  0  0  0  0  0  0  0  0  0  0  0
   27.5615   19.6031   35.8911 C   0  0  0  0  0  0  0  0  0  0  0  0
   28.3254   18.8601   36.9593 C   0  0  0  0  0  0  0  0  0  0  0  0
   30.8164   18.8127   37.1918 C   0  0  0  0  0  0  0  0  0  0  0  0
   21.1693   20.7332   28.6635 O   0  0  0  0  0  0  0  0  0  0  0  0
   26.3784   15.2860   31.2435 O   0  0  0  0  0  0  0  0  0  0  0  0
   29.6743   18.6840   36.3736 O   0  0  0  0  0  0  0  0  0  0  0  0
   26.0220   20.8973   33.9448 N   0  0  0  0  0  0  0  0  0  0  0  0
   24.0722   19.6196   30.5895 S   0  0  0  0  0  0  0  0  0  0  0  0
  1  3  1  0
  1 27  1  0
  2  5  2  0
  2  7  1  0
  3  4  1  0
  3 31  1  0
  4  8  1  0
  5  9  1  0
 11  6  1  6
  7 10  2  0
 12  8  1  1
  9 14  2  0
 10 14  1  0
 10 17  1  0
 11 15  1  0
 11 17  1  0
 12 19  1  0
 12 31  1  0
 13 15  1  0
 13 16  2  0
 15 18  2  0
 16 20  1  0
 17 22  1  1
 17 30  1  0
 18 19  1  0
 18 21  1  0
 19 30  1  1
 20 21  2  0
 20 28  1  0
 22 24  1  0
 23 28  1  0
 24 25  1  0
 25 29  1  0
 26 29  1  0
M  END
$$$$

     RDKit          3D

 18 19  0  0  0  0  0  0  0  0999 V2000
   23.1933   21.8313   35.2376 C   0  0  0  0  0  0  0  0  0  0  0  0
   23.5116   20.5702   34.7191 C   0  0  0  0  0  0  0  0  0  0  0  0
   24.2090   22.6787   35.6642 C   0  0  0  0  0  0  0  0  0  0  0  0
   24.9557   17.6643   34.5219 C   0  0  0  0  0  0  0  0  0  0  0  0
   24.8607   20.1837   34.6034 C   0  0  0  0  0  0  0  0  0  0  0  0
   25.1407   16.4546   33.8111 C   0  0  0  0  0  0  0  0  0  0  0  0
   25.2213   18.9103   33.9129 C   0  0  0  0  0  0  0  0  0  0  0  0
   25.6491   16.4916   32.5094 C   0  0  0  0  0  0  0  0  0  0  0  0
   25.6787   18.9047   32.6043 C   0  0  0  0  0  0  0  0  0  0  0  0
   25.4915   22.2818   35.6000 C   0  0  0  0  0  0  0  0  0  0  0  0
   25.9438   17.7022   31.9152 C   0  0  0  0  0  0  0  0  0  0  0  0
   25.8363   21.0319   35.0951 C   0  0  1  0  0  0  0  0  0  0  0  0
   22.5151   19.7274   34.3699 O   0  0  0  0  0  0  0  0  0  0  0  0
   25.8965   15.3888   31.7786 F   0  0  0  0  0  0  0  0  0  0  0  0
   23.9986   24.1504   36.4755 Cl  0  0  0  0  0  0  0  0  0  0  0  0
   24.6611   17.6218   36.2138 Cl  0  0  0  0  0  0  0  0  0  0  0  0
   26.1085   20.3389   31.8077 Cl  0  0  0  0  0  0  0  0  0  0  0  0
   27.4722   20.4893   35.1709 Cl  0  0  0  0  0  0  0  0  0  0  0  0
  1  2  1  0
  1  3  1  0
  2  5  2  0
  2 13  1  0
  3 10  2  0
  3 15  1  0
  4  6  2  0
  4  7  1  0
  4 16  1  0
  5  7  1  0
  5 12  1  0
  6  8  1  0
  7  9  2  0
  8 11  2  0
  8 14  1  0
  9 11  1  0
  9 17  1  0
 10 12  1  0
 12 18  1  1
M  END
$$$$

     RDKit          3D

 24 26  0  0  0  0  0  0  0  0999 V2000
   22.0740   20.4574   36.5912 C   0  0  0  0  0  0  0  0  0  0  0  0
   23.1586   19.4943   36.2291 C   0  0  0  0  0  0  0  0  0  0  0  0
   23.2337   18.2713   38.4146 C   0  0  0  0  0  0  0  0  0  0  0  0
   23.6889   18.4746   37.0972 C   0  0  0  0  0  0  0  0  0  0  0  0
   23.7492   17.2011   39.2246 C   0  0  0  0  0  0  0  0  0  0  0  0
   24.0603   19.6842   32.1603 C   0  0  0  0  0  0  0  0  0  0  0  0
   24.3672   19.8966   30.8091 C   0  0  0  0  0  0  0  0  0  0  0  0
   24.6878   16.3029   38.6536 C   0  0  0  0  0  0  0  0  0  0  0  0
   24.6952   17.6103   36.5871 C   0  0  0  0  0  0  0  0  0  0  0  0
   24.5613   18.8415   34.4469 C   0  0  0  0  0  0  0  0  0  0  0  0
   25.1950   16.5380   37.3615 C   0  0  0  0  0  0  0  0  0  0  0  0
   25.1770   17.8648   35.2482 C   0  0  0  0  0  0  0  0  0  0  0  0
   24.9901   19.1173   33.0696 C   0  0  0  0  0  0  0  0  0  0  0  0
   25.6268   19.5085   30.3629 C   0  0  0  0  0  0  0  0  0  0  0  0
   26.2578   18.7635   32.5734 C   0  0  0  0  0  0  0  0  0  0  0  0
   26.5513   19.0176   31.2095 C   0  0  0  0  0  0  0  0  0  0  0  0
   28.4408   19.9708   29.4027 C   0  0  0  0  0  0  0  0  0  0  0  0
   20.9115   20.1344   36.7629 O   0  0  0  0  0  0  0  0  0  0  0  0
   22.3932   21.7047   36.6393 O   0  0  0  0  0  0  0  0  0  0  0  0
   22.8208   20.1695   32.4758 O   0  0  0  0  0  0  0  0  0  0  0  0
   23.1509   16.9290   40.4136 O   0  0  0  0  0  0  0  0  0  0  0  0
   27.7557   21.0603   29.6847 O   0  0  0  0  0  0  0  0  0  0  0  0
   23.6029   19.6134   34.9364 N   0  0  0  0  0  0  0  0  0  0  0  0
   28.1161   18.6062   30.4710 S   0  0  0  0  0  0  0  0  0  0  0  0
  1  2  1  0
  1 18  2  0
  1 19  1  0
  2  4  2  0
  2 23  1  0
  3  4  1  0
  3  5  1  0
  4  9  1  0
  5  8  2  0
  5 21  1  0
  6  7  2  0
  6 13  1  0
  6 20  1  0
  7 14  1  0
  8 11  1  0
  9 11  1  0
  9 12  2  0
 10 12  1  0
 10 13  1  0
 10 23  2  0
 13 15  2  0
 14 16  2  0
 15 16  1  0
 16 24  1  0
 17 22  1  0
 17 24  1  0
M  END
$$$$

     RDKit          3D

 27 29  0  0  0  0  0  0  0  0999 V2000
   21.3510   19.4712   36.7339 C   0  0  0  0  0  0  0  0  0  0  0  0
   21.6245   18.4615   29.8156 C   0  0  0  0  0  0  0  0  0  0  0  0
   22.4519   19.5454   32.3567 C   0  0  0  0  0  0  0  0  0  0  0  0
   22.7093   19.9699   36.8066 C   0  0  2  0  0  0  0  0  0  0  0  0
   23.0703   18.3377   30.3238 C   0  0  0  0  0  0  0  0  0  0  0  0
   23.1215   21.2241   36.0775 C   0  0  0  0  0  0  0  0  0  0  0  0
   23.5593   19.3862   31.3254 C   0  0  2  0  0  0  0  0  0  0  0  0
   24.4852   21.0284   35.5941 C   0  0  0  0  0  0  0  0  0  0  0  0
   24.9437   18.9198   31.9186 C   0  0  2  0  0  0  0  0  0  0  0  0
   24.7563   18.7542   34.4359 C   0  0  2  0  0  0  0  0  0  0  0  0
   24.7743   19.5048   35.8100 C   0  0  1  0  0  0  0  0  0  0  0  0
   25.1629   16.7118   33.1132 C   0  0  0  0  0  0  0  0  0  0  0  0
   24.9661   17.4180   31.8895 C   0  0  0  0  0  0  0  0  0  0  0  0
   25.1019   17.3361   34.3879 C   0  0  0  0  0  0  0  0  0  0  0  0
   25.1938   19.5548   33.2547 C   0  0  0  0  0  0  0  0  0  0  0  0
   26.1665   19.2579   36.4939 C   0  0  0  0  0  0  0  0  0  0  0  0
   26.2271   18.7858   37.7948 C   0  0  0  0  0  0  0  0  0  0  0  0
   27.3135   19.1268   31.2570 C   0  0  0  0  0  0  0  0  0  0  0  0
   27.3113   19.3810   35.7365 C   0  0  0  0  0  0  0  0  0  0  0  0
   27.5146   18.5133   38.3657 C   0  0  0  0  0  0  0  0  0  0  0  0
   28.6640   18.6456   37.5969 C   0  0  0  0  0  0  0  0  0  0  0  0
   28.5046   19.0927   36.2902 C   0  0  0  0  0  0  0  0  0  0  0  0
   22.1294   20.3598   35.6941 O   0  0  0  0  0  0  0  0  0  0  0  0
   22.6678   22.3245   36.3937 O   0  0  0  0  0  0  0  0  0  0  0  0
   23.7199   19.0056   36.6260 O   0  0  0  0  0  0  0  0  0  0  0  0
   25.6052   15.3971   32.9217 O   0  0  0  0  0  0  0  0  0  0  0  0
   25.9253   19.4067   30.9926 O   0  0  0  0  0  0  0  0  0  0  0  0
  4  1  1  1
  2  5  1  0
  7  3  1  1
  4 23  1  0
  4 25  1  0
  5  7  1  0
  6  8  1  0
  6 23  1  0
  6 24  2  0
  7  9  1  0
  8 11  1  0
  9 13  1  0
  9 15  1  0
  9 27  1  6
 10 11  1  0
 10 14  1  0
 10 15  1  6
 11 16  1  1
 11 25  1  0
 12 13  1  0
 12 14  2  0
 12 26  1  0
 16 17  2  0
 16 19  1  0
 17 20  1  0
 18 27  1  0
 19 22  2  0
 20 21  2  0
 21 22  1  0
M  END
$$$$

     RDKit          3D

 24 27  0  0  0  0  0  0  0  0999 V2000
   23.0490   19.9273   34.7332 C   0  0  0  0  0  0  0  0  0  0  0  0
   23.0468   22.4442   34.8754 C   0  0  1  0  0  0  0  0  0  0  0  0
   23.2779   21.2064   34.0021 C   0  0  0  0  0  0  0  0  0  0  0  0
   23.9501   18.3422   37.2219 C   0  0  0  0  0  0  0  0  0  0  0  0
   24.1800   17.9043   32.8564 C   0  0  0  0  0  0  0  0  0  0  0  0
   24.0947   22.6780   35.9391 C   0  0  0  0  0  0  0  0  0  0  0  0
   24.4263   17.9314   38.4999 C   0  0  0  0  0  0  0  0  0  0  0  0
   24.2749   19.1766   34.9771 C   0  0  0  0  0  0  0  0  0  0  0  0
   24.7998   17.4006   31.6846 C   0  0  0  0  0  0  0  0  0  0  0  0
   24.8683   18.7407   33.6926 C   0  0  0  0  0  0  0  0  0  0  0  0
   24.8456   18.8816   36.2659 C   0  0  0  0  0  0  0  0  0  0  0  0
   25.7893   17.9740   38.8560 C   0  0  0  0  0  0  0  0  0  0  0  0
   26.1243   17.7775   31.4179 C   0  0  0  0  0  0  0  0  0  0  0  0
   26.1361   19.1567   33.4042 C   0  0  0  0  0  0  0  0  0  0  0  0
   26.2391   18.9799   36.5899 C   0  0  0  0  0  0  0  0  0  0  0  0
   26.7136   18.5377   37.8583 C   0  0  0  0  0  0  0  0  0  0  0  0
   26.8025   18.6818   32.2724 C   0  0  0  0  0  0  0  0  0  0  0  0
   26.8129   20.1422   34.3269 C   0  0  0  0  0  0  0  0  0  0  0  0
   27.1940   19.5308   35.6672 C   0  0  0  0  0  0  0  0  0  0  0  0
   28.0726   18.6127   38.1783 C   0  0  0  0  0  0  0  0  0  0  0  0
   28.5507   19.5163   35.9685 C   0  0  0  0  0  0  0  0  0  0  0  0
   28.9864   19.0657   37.2222 C   0  0  0  0  0  0  0  0  0  0  0  0
   22.6859   23.4203   34.1466 O   0  0  0  0  0  0  0  0  0  0  0  0
   24.5403   24.0244   36.0830 N   0  0  0  0  0  0  0  0  0  0  0  0
  1  3  1  0
  1  8  1  0
  2  3  1  0
  2  6  1  0
  2 23  1  6
  4  7  2  0
  4 11  1  0
  5  9  1  0
  5 10  2  0
  6 24  1  0
  7 12  1  0
  8 10  1  0
  8 11  1  0
  9 13  2  0
 10 14  1  0
 11 15  2  0
 12 16  2  0
 13 17  1  0
 14 17  2  0
 14 18  1  0
 15 16  1  0
 15 19  1  0
 16 20  1  0
 18 19  1  0
 19 21  2  0
 20 22  2  0
 21 22  1  0
M  END
$$$$

     RDKit          3D

 38 40  0  0  0  0  0  0  0  0999 V2000
   21.6831   16.6918   42.1484 C   0  0  0  0  0  0  0  0  0  0  0  0
   21.6862   21.5009   29.8713 C   0  0  0  0  0  0  0  0  0  0  0  0
   21.8221   16.3695   40.6747 C   0  0  0  0  0  0  0  0  0  0  0  0
   22.1990   19.8156   36.6047 C   0  0  0  0  0  0  0  0  0  0  0  0
   22.1480   20.5157   30.9078 C   0  0  2  0  0  0  0  0  0  0  0  0
   22.2646   18.9400   37.6834 C   0  0  0  0  0  0  0  0  0  0  0  0
   22.7060   20.2909   33.2809 C   0  0  0  0  0  0  0  0  0  0  0  0
   22.4825   21.1335   32.2060 C   0  0  0  0  0  0  0  0  0  0  0  0
   22.6432   22.5076   32.3406 C   0  0  0  0  0  0  0  0  0  0  0  0
   22.8495   23.7154   36.6830 C   0  0  0  0  0  0  0  0  0  0  0  0
   23.1828   18.8169   29.4329 C   0  0  0  0  0  0  0  0  0  0  0  0
   23.0268   20.8088   34.5312 C   0  0  0  0  0  0  0  0  0  0  0  0
   23.1877   22.2024   34.6766 C   0  0  0  0  0  0  0  0  0  0  0  0
   22.9696   23.0616   33.5583 C   0  0  0  0  0  0  0  0  0  0  0  0
   23.4065   18.1180   37.8420 C   0  0  0  0  0  0  0  0  0  0  0  0
   23.2292   19.8544   35.6180 C   0  0  2  0  0  0  0  0  0  0  0  0
   23.4242   19.9791   30.2856 C   0  0  0  0  0  0  0  0  0  0  0  0
   23.5313   17.2344   39.0807 C   0  0  0  0  0  0  0  0  0  0  0  0
   23.5764   17.7601   41.3934 C   0  0  0  0  0  0  0  0  0  0  0  0
   23.5328   20.0640   28.7978 C   0  0  0  0  0  0  0  0  0  0  0  0
   23.5085   24.7088   37.5346 C   0  0  0  0  0  0  0  0  0  0  0  0
   24.4059   18.1241   36.8242 C   0  0  0  0  0  0  0  0  0  0  0  0
   24.3256   18.9457   35.7048 C   0  0  0  0  0  0  0  0  0  0  0  0
   25.0286   22.6553   36.1251 C   0  0  0  0  0  0  0  0  0  0  0  0
   25.7810   15.9841   32.0471 C   0  0  0  0  0  0  0  0  0  0  0  0
   25.7165   17.0564   32.9087 C   0  0  0  0  0  0  0  0  0  0  0  0
   26.0897   19.3428   33.7450 C   0  0  0  0  0  0  0  0  0  0  0  0
   26.3877   16.1804   30.8327 C   0  0  0  0  0  0  0  0  0  0  0  0
   26.2266   18.3005   32.6253 C   0  0  0  0  0  0  0  0  0  0  0  0
   26.9323   17.4167   30.4621 C   0  0  0  0  0  0  0  0  0  0  0  0
   26.8795   18.4944   31.3795 C   0  0  0  0  0  0  0  0  0  0  0  0
   27.0501   20.4212   29.9127 C   0  0  0  0  0  0  0  0  0  0  0  0
   24.4345   16.4072   39.1354 O   0  0  0  0  0  0  0  0  0  0  0  0
   26.6007   20.3858   33.6754 O   0  0  0  0  0  0  0  0  0  0  0  0
   27.4516   19.6923   31.0647 O   0  0  0  0  0  0  0  0  0  0  0  0
   22.7467   17.4519   40.1779 N   0  0  0  0  0  0  0  0  0  0  0  0
   23.6258   22.8374   35.8893 N   0  0  0  0  0  0  0  0  0  0  0  0
   25.3489   18.8395   34.7394 N   0  0  0  0  0  0  0  0  0  0  0  0
  1  3  1  0
  5  2  1  6
  3 36  1  0
  4  6  2  0
  4 16  1  0
  5  8  1  0
  5 17  1  0
  6 15  1  0
  7  8  2  0
  7 12  1  0
  8  9  1  0
  9 14  2  0
 10 21  1  0
 10 37  1  0
 11 17  1  0
 11 20  1  0
 12 13  2  0
 16 12  1  6
 13 14  1  0
 13 37  1  0
 15 18  1  0
 15 22  1  0
 16 23  1  0
 18 33  2  0
 18 36  1  0
 19 36  1  0
 22 23  2  0
 23 38  1  0
 24 37  1  0
 25 26  2  0
 25 28  1  0
 26 29  1  0
 27 29  1  0
 27 34  2  0
 27 38  1  0
 28 30  2  0
 29 31  2  0
 30 31  1  0
 31 35  1  0
 32 35  1  0
M  END
$$$$

     RDKit          3D

 43 48  0  0  0  0  0  0  0  0999 V2000
   21.4764   16.0792   41.7362 C   0  0  0  0  0  0  0  0  0  0  0  0
   22.1837   18.3339   29.1024 C   0  0  0  0  0  0  0  0  0  0  0  0
   22.2405   16.1464   39.3204 C   0  0  0  0  0  0  0  0  0  0  0  0
   22.3383   16.5533   40.6639 C   0  0  0  0  0  0  0  0  0  0  0  0
   22.3551   18.9469   30.3435 C   0  0  0  0  0  0  0  0  0  0  0  0
   22.5075   18.9907   27.9474 C   0  0  0  0  0  0  0  0  0  0  0  0
   22.8933   20.1477   32.9025 C   0  0  0  0  0  0  0  0  0  0  0  0
   22.8371   20.2291   30.4045 C   0  0  0  0  0  0  0  0  0  0  0  0
   23.1317   16.6475   38.3427 C   0  0  0  0  0  0  0  0  0  0  0  0
   23.0212   20.2643   27.9689 C   0  0  0  0  0  0  0  0  0  0  0  0
   23.1839   20.9011   29.2425 C   0  0  0  0  0  0  0  0  0  0  0  0
   23.3103   17.4681   40.9784 C   0  0  0  0  0  0  0  0  0  0  0  0
   23.2291   20.9434   31.6611 C   0  0  0  0  0  0  0  0  0  0  0  0
   23.3053   20.8439   34.1932 C   0  0  0  0  0  0  0  0  0  0  0  0
   24.0919   17.5286   38.7595 C   0  0  0  0  0  0  0  0  0  0  0  0
   24.1993   17.9492   40.0721 C   0  0  0  0  0  0  0  0  0  0  0  0
   24.7271   21.4460   34.3320 C   0  0  1  0  0  0  0  0  0  0  0  0
   25.1870   18.0603   33.7382 C   0  0  0  0  0  0  0  0  0  0  0  0
   25.1284   18.0452   37.8978 C   0  0  0  0  0  0  0  0  0  0  0  0
   25.0131   22.0682   35.6554 C   0  0  0  0  0  0  0  0  0  0  0  0
   25.6654   15.4869   32.5860 C   0  0  0  0  0  0  0  0  0  0  0  0
   25.8323   17.9799   32.4431 C   0  0  0  0  0  0  0  0  0  0  0  0
   25.8299   18.8595   35.8743 C   0  0  0  0  0  0  0  0  0  0  0  0
   25.7415   20.4131   33.9351 C   0  0  2  0  0  0  0  0  0  0  0  0
   25.9520   20.4467   32.4107 C   0  0  0  0  0  0  0  0  0  0  0  0
   26.0596   16.7164   31.8570 C   0  0  0  0  0  0  0  0  0  0  0  0
   26.2066   19.1303   31.7601 C   0  0  0  0  0  0  0  0  0  0  0  0
   26.6815   16.6254   30.5939 C   0  0  0  0  0  0  0  0  0  0  0  0
   26.7591   19.0275   30.5096 C   0  0  0  0  0  0  0  0  0  0  0  0
   27.0321   17.7765   29.9218 C   0  0  0  0  0  0  0  0  0  0  0  0
   27.1582   18.9209   36.3773 C   0  0  1  0  0  0  0  0  0  0  0  0
   27.3961   18.6433   37.7431 C   0  0  0  0  0  0  0  0  0  0  0  0
   28.2748   19.1771   35.5856 C   0  0  0  0  0  0  0  0  0  0  0  0
   28.7007   18.7056   38.2939 C   0  0  0  0  0  0  0  0  0  0  0  0
   29.5351   19.2021   36.1074 C   0  0  0  0  0  0  0  0  0  0  0  0
   29.7613   18.9286   37.4431 C   0  0  0  0  0  0  0  0  0  0  0  0
   21.4164   15.2035   42.6576 O   0  0  0  0  0  0  0  0  0  0  0  0
   22.7508   20.9151   31.7346 O   0  0  0  0  0  0  0  0  0  0  0  0
   24.0117   17.6596   33.8003 O   0  0  0  0  0  0  0  0  0  0  0  0
   24.8401   18.3514   36.6427 N   0  0  0  0  0  0  0  0  0  0  0  0
   25.5174   19.1044   34.5437 N   0  0  0  0  0  0  0  0  0  0  0  0
   26.3188   18.2329   38.4312 N   0  0  0  0  0  0  0  0  0  0  0  0
   27.0012   20.6009   29.6562 Cl  0  0  0  0  0  0  0  0  0  0  0  0
  1  4  1  0
  1 37  2  0
  2  5  2  0
  2  6  1  0
  3  4  2  0
  3  9  1  0
  4 12  1  0
  5  8  1  0
  6 10  2  0
  7 14  1  0
  7 38  1  0
  8 11  2  0
  8 13  1  0
  9 15  2  0
 10 11  1  0
 12 16  2  0
 13 38  1  0
 14 17  1  0
 15 16  1  0
 15 19  1  0
 17 20  1  1
 17 24  1  0
 18 22  1  0
 18 39  2  0
 18 41  1  0
 19 40  1  0
 19 42  2  0
 21 26  1  0
 22 26  1  0
 22 27  2  0
 23 31  1  0
 23 40  2  0
 23 41  1  0
 24 25  1  6
 24 41  1  0
 25 27  1  0
 26 28  2  0
 27 29  1  0
 28 30  1  0
 29 30  2  0
 29 43  1  0
 31 32  1  0
 31 33  1  6
 32 34  2  0
 32 42  1  0
 33 35  2  0
 34 36  1  0
 35 36  1  0
M  END
$$$$

     RDKit          3D

 17 18  0  0  0  0  0  0  0  0999 V2000
   22.2973   24.4603   35.7361 C   0  0  0  0  0  0  0  0  0  0  0  0
   22.6676   21.3439   35.7713 C   0  0  0  0  0  0  0  0  0  0  0  0
   23.1685   20.2378   35.0592 C   0  0  0  0  0  0  0  0  0  0  0  0
   23.4802   22.4454   36.0125 C   0  0  0  0  0  0  0  0  0  0  0  0
   24.4849   18.0486   33.4643 C   0  0  0  0  0  0  0  0  0  0  0  0
   24.5314   20.2435   34.6154 C   0  0  0  0  0  0  0  0  0  0  0  0
   24.8049   22.4474   35.5981 C   0  0  0  0  0  0  0  0  0  0  0  0
   25.0304   17.1489   32.5689 C   0  0  0  0  0  0  0  0  0  0  0  0
   25.1486   19.2551   33.6961 C   0  0  0  0  0  0  0  0  0  0  0  0
   25.3281   21.3827   34.9044 C   0  0  0  0  0  0  0  0  0  0  0  0
   26.1839   17.4252   31.8741 C   0  0  0  0  0  0  0  0  0  0  0  0
   26.3304   19.5443   33.0127 C   0  0  0  0  0  0  0  0  0  0  0  0
   26.8308   18.6234   32.1186 C   0  0  0  0  0  0  0  0  0  0  0  0
   21.3391   23.9931   35.1433 O   0  0  0  0  0  0  0  0  0  0  0  0
   22.6273   25.6775   35.6503 O   0  0  0  0  0  0  0  0  0  0  0  0
   23.0136   23.6032   36.6176 O   0  0  0  0  0  0  0  0  0  0  0  0
   22.2275   19.2194   34.8952 F   0  0  0  0  0  0  0  0  0  0  0  0
  1 14  2  0
  1 15  1  0
  1 16  1  0
  2  3  2  0
  2  4  1  0
  3  6  1  0
  3 17  1  0
  4  7  2  0
  4 16  1  0
  5  8  2  0
  5  9  1  0
  6  9  1  0
  6 10  2  0
  7 10  1  0
  8 11  1  0
  9 12  2  0
 11 13  2  0
 12 13  1  0
M  END
$$$$

     RDKit          3D

 22 23  0  0  0  0  0  0  0  0999 V2000
   22.6833   17.8271   38.0426 C   0  0  0  0  0  0  0  0  0  0  0  0
   23.1869   16.7375   38.7775 C   0  0  0  0  0  0  0  0  0  0  0  0
   23.4020   19.8332   36.4439 C   0  0  0  0  0  0  0  0  0  0  0  0
   23.5798   18.6756   37.3633 C   0  0  0  0  0  0  0  0  0  0  0  0
   23.8151   19.6211   31.0795 C   0  0  0  0  0  0  0  0  0  0  0  0
   24.5440   16.4738   38.8277 C   0  0  0  0  0  0  0  0  0  0  0  0
   24.9402   18.4797   37.4954 C   0  0  0  0  0  0  0  0  0  0  0  0
   24.8159   19.4356   32.2000 C   0  0  0  0  0  0  0  0  0  0  0  0
   24.8656   20.1790   35.9735 C   0  0  2  0  0  0  0  0  0  0  0  0
   25.1367   21.7146   36.0398 C   0  0  0  0  0  0  0  0  0  0  0  0
   25.4290   17.3772   38.2005 C   0  0  1  0  0  0  0  0  0  0  0  0
   25.2614   19.6776   34.5427 C   0  0  0  0  0  0  0  0  0  0  0  0
   26.0681   18.8822   31.9714 C   0  0  0  0  0  0  0  0  0  0  0  0
   26.4378   19.5243   29.4651 C   0  0  0  0  0  0  0  0  0  0  0  0
   26.5229   18.4369   30.5646 C   0  0  0  0  0  0  0  0  0  0  0  0
   26.5252   19.0348   34.3664 C   0  0  0  0  0  0  0  0  0  0  0  0
   26.9193   18.6615   33.0474 C   0  0  0  0  0  0  0  0  0  0  0  0
   23.3742   20.7339   30.8228 O   0  0  0  0  0  0  0  0  0  0  0  0
   23.5558   18.6066   30.4041 O   0  0  0  0  0  0  0  0  0  0  0  0
   25.6233   19.4853   36.9212 O   0  0  0  0  0  0  0  0  0  0  0  0
   24.4863   19.8255   33.4931 N   0  0  0  0  0  0  0  0  0  0  0  0
   27.1411   17.2726   38.2756 Cl  0  0  0  0  0  0  0  0  0  0  0  0
  1  2  1  0
  1  4  1  0
  2  6  2  0
  3  4  1  0
  3  9  1  0
  4  7  2  0
  5  8  1  0
  5 18  2  0
  5 19  1  0
  6 11  1  0
  7 11  1  0
  7 20  1  0
  8 13  2  0
  9 10  1  6
  9 12  1  0
  9 20  1  0
 11 22  1  1
 12 16  2  3
 12 21  1  0
 13 15  1  0
 13 17  1  0
 14 15  1  0
 16 17  1  0
M  END
$$$$

     RDKit          3D

 33 35  0  0  0  0  0  0  0  0999 V2000
   21.3467   19.7314   36.9464 C   0  0  0  0  0  0  0  0  0  0  0  0
   21.7454   17.7057   28.9118 C   0  0  0  0  0  0  0  0  0  0  0  0
   21.9231   19.8169   30.3961 C   0  0  0  0  0  0  0  0  0  0  0  0
   22.1779   19.1706   29.1643 C   0  0  0  0  0  0  0  0  0  0  0  0
   22.0669   21.7940   31.9069 C   0  0  0  0  0  0  0  0  0  0  0  0
   22.3571   20.6983   36.4313 C   0  0  0  0  0  0  0  0  0  0  0  0
   22.2854   21.1844   30.5564 C   0  0  0  0  0  0  0  0  0  0  0  0
   22.7010   19.9102   28.1056 C   0  0  0  0  0  0  0  0  0  0  0  0
   22.7731   21.9198   29.4879 C   0  0  0  0  0  0  0  0  0  0  0  0
   22.9766   21.2945   28.2705 C   0  0  0  0  0  0  0  0  0  0  0  0
   23.1145   22.6091   32.5734 C   0  0  0  0  0  0  0  0  0  0  0  0
   23.7041   19.9306   36.2803 C   0  0  0  0  0  0  0  0  0  0  0  0
   23.7176   20.8285   34.0741 C   0  0  0  0  0  0  0  0  0  0  0  0
   24.2303   21.9292   33.1727 C   0  0  0  0  0  0  0  0  0  0  0  0
   24.6998   16.8395   33.0308 C   0  0  0  0  0  0  0  0  0  0  0  0
   24.6908   17.1904   31.7094 C   0  0  0  0  0  0  0  0  0  0  0  0
   24.5762   20.6752   35.3197 C   0  0  1  0  0  0  0  0  0  0  0  0
   24.8844   22.0930   35.9959 C   0  0  0  0  0  0  0  0  0  0  0  0
   25.0803   17.7148   34.0020 C   0  0  0  0  0  0  0  0  0  0  0  0
   25.0885   18.4481   31.3307 C   0  0  0  0  0  0  0  0  0  0  0  0
   25.4560   19.3678   32.2751 C   0  0  0  0  0  0  0  0  0  0  0  0
   25.4794   18.9711   33.6378 C   0  0  0  0  0  0  0  0  0  0  0  0
   25.8723   20.0385   34.6950 C   0  0  0  0  0  0  0  0  0  0  0  0
   26.5985   19.2031   37.0127 C   0  0  0  0  0  0  0  0  0  0  0  0
   26.8685   19.4978   35.6932 C   0  0  0  0  0  0  0  0  0  0  0  0
   27.5958   18.8360   37.8903 C   0  0  0  0  0  0  0  0  0  0  0  0
   28.1692   19.3551   35.2490 C   0  0  0  0  0  0  0  0  0  0  0  0
   28.9057   18.6775   37.4494 C   0  0  0  0  0  0  0  0  0  0  0  0
   29.1784   18.9095   36.1180 C   0  0  0  0  0  0  0  0  0  0  0  0
   21.4248   19.1367   31.3611 O   0  0  0  0  0  0  0  0  0  0  0  0
   22.9957   23.8554   32.8351 O   0  0  0  0  0  0  0  0  0  0  0  0
   23.7808   19.0687   37.0502 O   0  0  0  0  0  0  0  0  0  0  0  0
   26.5697   21.0948   33.9603 O   0  0  0  0  0  0  0  0  0  0  0  0
  1  6  1  0
  2  4  1  0
  3  4  1  0
  3  7  1  0
  3 30  2  0
  4  8  2  0
  5  7  1  0
  5 11  1  0
  6 12  1  0
  7  9  1  0
  8 10  1  0
  9 10  2  0
 11 14  1  0
 11 31  2  0
 12 17  1  0
 12 32  2  0
 13 14  1  0
 13 17  1  0
 15 16  2  0
 15 19  1  0
 16 20  1  0
 17 18  1  1
 17 23  1  0
 19 22  2  0
 20 21  2  0
 21 22  1  0
 22 23  1  0
 23 25  1  0
 23 33  1  0
 24 25  2  0
 24 26  1  0
 25 27  1  0
 26 28  2  0
 27 29  2  0
 28 29  1  0
M  END
$$$$

     RDKit          3D

 27 29  0  0  0  0  0  0  0  0999 V2000
   21.6037   18.5356   37.2210 C   0  0  0  0  0  0  0  0  0  0  0  0
   21.9588   21.8920   29.6734 C   0  0  0  0  0  0  0  0  0  0  0  0
   22.3893   22.9022   31.5727 C   0  0  0  0  0  0  0  0  0  0  0  0
   22.4067   23.7000   32.7079 C   0  0  0  0  0  0  0  0  0  0  0  0
   22.6953   20.9254   30.1833 C   0  0  0  0  0  0  0  0  0  0  0  0
   22.6895   23.0787   33.9239 C   0  0  0  0  0  0  0  0  0  0  0  0
   22.8583   19.3018   36.8282 C   0  0  2  0  0  0  0  0  0  0  0  0
   22.7545   19.6204   35.3091 C   0  0  0  0  0  0  0  0  0  0  0  0
   22.9284   21.0510   35.1745 C   0  0  0  0  0  0  0  0  0  0  0  0
   22.8978   21.5599   31.4937 C   0  0  0  0  0  0  0  0  0  0  0  0
   22.9185   21.7050   33.9378 C   0  0  0  0  0  0  0  0  0  0  0  0
   23.0856   20.9445   32.7737 C   0  0  0  0  0  0  0  0  0  0  0  0
   24.9330   15.6352   32.9468 C   0  0  0  0  0  0  0  0  0  0  0  0
   24.9862   18.1485   30.4128 C   0  0  0  0  0  0  0  0  0  0  0  0
   25.4361   16.9744   33.3513 C   0  0  0  0  0  0  0  0  0  0  0  0
   25.3141   17.3764   34.6858 C   0  0  0  0  0  0  0  0  0  0  0  0
   25.7651   18.6106   35.1189 C   0  0  0  0  0  0  0  0  0  0  0  0
   26.1294   17.5110   30.9680 C   0  0  0  0  0  0  0  0  0  0  0  0
   26.0768   17.8279   32.4325 C   0  0  0  0  0  0  0  0  0  0  0  0
   26.6143   19.0308   32.8967 C   0  0  0  0  0  0  0  0  0  0  0  0
   26.4908   19.3979   34.2202 C   0  0  0  0  0  0  0  0  0  0  0  0
   27.2184   20.6454   34.5531 C   0  0  0  0  0  0  0  0  0  0  0  0
   25.5039   20.5745   36.8187 O   0  0  0  0  0  0  0  0  0  0  0  0
   26.5442   18.4397   37.5335 O   0  0  0  0  0  0  0  0  0  0  0  0
   22.0040   23.1362   30.3547 N   0  0  0  0  0  0  0  0  0  0  0  0
   24.0512   18.5511   37.1746 N   0  0  0  0  0  0  0  0  0  0  0  0
   25.5195   19.0869   36.7298 S   0  0  0  0  0  0  0  0  0  0  0  0
  7  1  1  6
  2  5  1  0
  2 25  1  0
  3  4  1  0
  3 10  2  0
  3 25  1  0
  4  6  2  0
  5 10  1  0
  6 11  1  0
  7  8  1  0
  7 26  1  0
  8  9  1  0
  9 11  1  0
 10 12  1  0
 11 12  2  0
 13 15  1  0
 14 18  1  0
 15 16  2  0
 15 19  1  0
 16 17  1  0
 17 21  2  0
 17 27  1  0
 18 19  1  0
 19 20  2  0
 20 21  1  0
 21 22  1  0
 23 27  1  0
 24 27  1  0
 26 27  1  0
M  END
$$$$

     RDKit          3D

 25 28  0  0  0  0  0  0  0  0999 V2000
   22.6997   21.4312   35.8750 C   0  0  0  0  0  0  0  0  0  0  0  0
   22.9198   22.7741   36.3349 C   0  0  0  0  0  0  0  0  0  0  0  0
   23.9620   17.9423   30.3195 C   0  0  0  0  0  0  0  0  0  0  0  0
   23.9531   21.0225   35.3553 C   0  0  2  0  0  0  0  0  0  0  0  0
   24.4431   18.3643   33.3188 C   0  0  0  0  0  0  0  0  0  0  0  0
   24.2503   19.6283   35.4885 C   0  0  0  0  0  0  0  0  0  0  0  0
   24.3041   23.0360   36.1425 C   0  0  0  0  0  0  0  0  0  0  0  0
   25.1069   17.9396   32.2020 C   0  0  0  0  0  0  0  0  0  0  0  0
   25.0281   19.2348   34.2461 C   0  0  0  0  0  0  0  0  0  0  0  0
   26.4206   18.3779   31.9822 C   0  0  0  0  0  0  0  0  0  0  0  0
   26.3594   19.6663   34.0674 C   0  0  0  0  0  0  0  0  0  0  0  0
   26.5674   19.3770   37.2260 C   0  0  0  0  0  0  0  0  0  0  0  0
   26.9574   18.5639   38.3165 C   0  0  0  0  0  0  0  0  0  0  0  0
   27.0105   19.2412   32.9097 C   0  0  0  0  0  0  0  0  0  0  0  0
   27.0741   20.6290   35.0741 C   0  0  2  0  0  0  0  0  0  0  0  0
   27.4812   19.7238   36.2604 C   0  0  0  0  0  0  0  0  0  0  0  0
   28.1050   18.6994   30.2268 C   0  0  0  0  0  0  0  0  0  0  0  0
   28.2763   18.1542   38.4334 C   0  0  0  0  0  0  0  0  0  0  0  0
   28.7933   19.2347   36.3433 C   0  0  0  0  0  0  0  0  0  0  0  0
   29.2009   18.4541   37.4212 C   0  0  0  0  0  0  0  0  0  0  0  0
   24.5497   17.1136   31.2994 O   0  0  0  0  0  0  0  0  0  0  0  0
   24.9287   23.8887   36.8759 O   0  0  0  0  0  0  0  0  0  0  0  0
   27.1319   17.8848   30.9331 O   0  0  0  0  0  0  0  0  0  0  0  0
   24.9651   21.9912   35.5236 N   0  0  0  0  0  0  0  0  0  0  0  0
   26.3588   21.9292   35.3509 N   0  0  0  0  0  0  0  0  0  0  0  0
  1  2  1  0
  4  1  1  1
  2  7  1  0
  3 21  1  0
  4  6  1  0
  4 24  1  0
  5  8  2  0
  5  9  1  0
  6  9  1  0
  7 22  2  0
  7 24  1  0
  8 10  1  0
  8 21  1  0
  9 11  2  0
 10 14  2  0
 10 23  1  0
 11 14  1  0
 11 15  1  0
 12 13  2  0
 12 16  1  0
 13 18  1  0
 15 16  1  1
 15 25  1  0
 16 19  2  0
 17 23  1  0
 18 20  2  0
 19 20  1  0
 24 25  1  0
M  END
$$$$

     RDKit          3D

 35 38  0  0  0  0  0  0  0  0999 V2000
   21.2406   15.4301   41.8666 C   0  0  0  0  0  0  0  0  0  0  0  0
   21.7971   19.4654   30.3935 C   0  0  0  0  0  0  0  0  0  0  0  0
   22.1342   19.9477   31.6758 C   0  0  0  0  0  0  0  0  0  0  0  0
   22.6276   16.2360   40.1004 C   0  0  0  0  0  0  0  0  0  0  0  0
   22.5134   18.4416   29.7770 C   0  0  0  0  0  0  0  0  0  0  0  0
   23.1559   15.9491   38.7986 C   0  0  0  0  0  0  0  0  0  0  0  0
   23.2709   17.2071   40.9104 C   0  0  0  0  0  0  0  0  0  0  0  0
   23.2634   19.3901   32.3187 C   0  0  0  0  0  0  0  0  0  0  0  0
   23.6565   17.9279   30.4325 C   0  0  0  0  0  0  0  0  0  0  0  0
   23.7564   22.4679   35.1944 C   0  0  0  0  0  0  0  0  0  0  0  0
   24.0337   18.3975   31.7043 C   0  0  0  0  0  0  0  0  0  0  0  0
   24.2394   16.6774   38.2801 C   0  0  0  0  0  0  0  0  0  0  0  0
   24.3827   17.9045   40.4011 C   0  0  0  0  0  0  0  0  0  0  0  0
   24.8134   16.3769   36.8764 C   0  0  0  0  0  0  0  0  0  0  0  0
   24.8904   17.5896   39.1282 C   0  0  0  0  0  0  0  0  0  0  0  0
   25.1676   18.8369   36.2042 C   0  0  1  0  0  0  0  0  0  0  0  0
   24.9888   21.7240   34.6110 C   0  0  0  0  0  0  0  0  0  0  0  0
   25.2781   17.1047   34.5928 C   0  0  0  0  0  0  0  0  0  0  0  0
   25.2670   17.7620   32.3202 C   0  0  0  0  0  0  0  0  0  0  0  0
   25.9842   21.1617   35.6548 C   0  0  0  0  0  0  0  0  0  0  0  0
   26.2213   19.3050   33.9785 C   0  0  0  0  0  0  0  0  0  0  0  0
   26.2934   19.6458   35.4793 C   0  0  2  0  0  0  0  0  0  0  0  0
   27.7036   19.2490   36.1020 C   0  0  0  0  0  0  0  0  0  0  0  0
   27.7841   19.1405   37.5497 C   0  0  0  0  0  0  0  0  0  0  0  0
   28.8814   18.9385   35.3235 C   0  0  0  0  0  0  0  0  0  0  0  0
   29.0355   18.7413   38.1700 C   0  0  0  0  0  0  0  0  0  0  0  0
   30.1370   18.5686   36.0360 C   0  0  0  0  0  0  0  0  0  0  0  0
   30.1880   18.4724   37.4329 C   0  0  0  0  0  0  0  0  0  0  0  0
   20.7130   19.9828   29.7805 O   0  0  0  0  0  0  0  0  0  0  0  0
   21.4876   15.6144   40.5433 O   0  0  0  0  0  0  0  0  0  0  0  0
   23.9469   19.4160   36.1805 O   0  0  0  0  0  0  0  0  0  0  0  0
   25.0770   15.9279   34.1876 O   0  0  0  0  0  0  0  0  0  0  0  0
   27.1486   19.6669   33.1981 O   0  0  0  0  0  0  0  0  0  0  0  0
   25.1902   17.4433   35.9222 N   0  0  0  0  0  0  0  0  0  0  0  0
   25.5282   18.1102   33.6787 N   0  0  0  0  0  0  0  0  0  0  0  0
  1 30  1  0
  2  3  2  0
  2  5  1  0
  2 29  1  0
  3  8  1  0
  4  6  1  0
  4  7  2  0
  4 30  1  0
  5  9  2  0
  6 12  1  0
  7 13  1  0
  8 11  2  0
  9 11  1  0
 10 17  1  0
 11 19  1  0
 12 14  1  0
 12 15  2  0
 13 15  1  0
 14 34  1  0
 16 22  1  0
 16 31  1  6
 16 34  1  0
 17 20  1  0
 18 32  2  0
 18 34  1  0
 18 35  1  0
 19 35  1  0
 22 20  1  6
 21 22  1  0
 21 33  2  0
 21 35  1  0
 22 23  1  0
 23 24  2  0
 23 25  1  0
 24 26  1  0
 25 27  2  0
 26 28  2  0
 27 28  1  0
M  END
$$$$

     RDKit          3D

 40 44  0  0  0  0  0  0  0  0999 V2000
   22.1039   18.9371   31.7328 C   0  0  0  0  0  0  0  0  0  0  0  0
   22.2547   16.2155   40.8116 C   0  0  0  0  0  0  0  0  0  0  0  0
   22.3494   19.2719   30.4262 C   0  0  0  0  0  0  0  0  0  0  0  0
   22.5360   15.7207   39.5459 C   0  0  0  0  0  0  0  0  0  0  0  0
   22.7072   19.6156   32.7527 C   0  0  0  0  0  0  0  0  0  0  0  0
   23.0176   17.2559   41.3499 C   0  0  0  0  0  0  0  0  0  0  0  0
   23.2410   20.3004   30.1249 C   0  0  0  0  0  0  0  0  0  0  0  0
   23.3195   22.4188   35.5582 C   0  0  0  0  0  0  0  0  0  0  0  0
   23.4914   16.2970   38.7714 C   0  0  0  0  0  0  0  0  0  0  0  0
   23.5994   20.6347   28.7426 C   0  0  0  0  0  0  0  0  0  0  0  0
   23.6344   20.6332   32.5255 C   0  0  0  0  0  0  0  0  0  0  0  0
   23.6228   22.4143   34.0663 C   0  0  0  0  0  0  0  0  0  0  0  0
   23.8745   21.0004   31.1888 C   0  0  0  0  0  0  0  0  0  0  0  0
   23.9990   17.8504   40.5415 C   0  0  0  0  0  0  0  0  0  0  0  0
   24.2181   17.3717   39.2556 C   0  0  0  0  0  0  0  0  0  0  0  0
   24.7009   22.4926   36.1867 C   0  0  0  0  0  0  0  0  0  0  0  0
   24.8501   18.7335   37.1972 C   0  0  0  0  0  0  0  0  0  0  0  0
   25.0928   20.7299   34.6471 C   0  0  1  0  0  0  0  0  0  0  0  0
   25.2307   18.0065   38.3943 C   0  0  0  0  0  0  0  0  0  0  0  0
   25.5074   18.3460   34.1051 C   0  0  0  0  0  0  0  0  0  0  0  0
   25.7104   19.4850   34.9946 C   0  0  2  0  0  0  0  0  0  0  0  0
   25.7029   21.6988   35.5167 C   0  0  0  0  0  0  0  0  0  0  0  0
   26.0630   17.1113   32.1616 C   0  0  0  0  0  0  0  0  0  0  0  0
   26.1602   18.3078   32.8302 C   0  0  0  0  0  0  0  0  0  0  0  0
   26.6924   16.9275   30.9295 C   0  0  1  0  0  0  0  0  0  0  0  0
   26.8193   19.3601   32.2250 C   0  0  0  0  0  0  0  0  0  0  0  0
   27.1929   18.9176   36.7646 C   0  0  0  0  0  0  0  0  0  0  0  0
   27.3405   17.9921   30.3444 C   0  0  0  0  0  0  0  0  0  0  0  0
   27.4230   19.2115   30.9911 C   0  0  0  0  0  0  0  0  0  0  0  0
   27.5088   18.2637   38.0057 C   0  0  0  0  0  0  0  0  0  0  0  0
   23.2751   23.3009   33.4363 O   0  0  0  0  0  0  0  0  0  0  0  0
   23.6792   19.0273   36.9859 O   0  0  0  0  0  0  0  0  0  0  0  0
   26.4625   17.8877   38.7892 O   0  0  0  0  0  0  0  0  0  0  0  0
   26.7903   22.0487   34.9797 O   0  0  0  0  0  0  0  0  0  0  0  0
   28.1469   19.3795   36.0762 O   0  0  0  0  0  0  0  0  0  0  0  0
   24.2237   21.2203   33.6910 N   0  0  0  0  0  0  0  0  0  0  0  0
   25.9015   19.0726   36.3649 N   0  0  0  0  0  0  0  0  0  0  0  0
   21.6012   18.6645   29.5100 F   0  0  0  0  0  0  0  0  0  0  0  0
   25.2279   15.5170   32.9723 Cl  0  0  0  0  0  0  0  0  0  0  0  0
   26.7377   15.3554   30.2323 Cl  0  0  0  0  0  0  0  0  0  0  0  0
  1  3  2  0
  1  5  1  0
  2  4  2  0
  2  6  1  0
  3  7  1  0
  3 38  1  0
  4  9  1  0
  5 11  2  0
  6 14  2  0
  7 10  1  0
  7 13  2  0
  8 12  1  0
  8 16  1  0
  9 15  2  0
 11 13  1  0
 11 36  1  0
 12 31  2  0
 12 36  1  0
 14 15  1  0
 15 19  1  0
 16 22  1  0
 17 19  1  0
 17 32  2  0
 17 37  1  0
 18 21  1  0
 18 22  1  0
 18 36  1  6
 19 33  1  0
 21 20  1  6
 20 24  1  0
 21 37  1  0
 22 34  2  0
 23 24  2  0
 23 25  1  0
 23 39  1  0
 24 26  1  0
 25 28  1  0
 25 40  1  1
 26 29  1  0
 27 30  1  0
 27 35  2  0
 27 37  1  0
 28 29  2  0
 30 33  1  0
M  END
$$$$

     RDKit          3D

 26 28  0  0  0  0  0  0  0  0999 V2000
   22.6645   20.5926   34.7372 C   0  0  0  0  0  0  0  0  0  0  0  0
   22.7134   21.0310   32.2302 C   0  0  0  0  0  0  0  0  0  0  0  0
   23.0158   20.2508   33.3540 C   0  0  0  0  0  0  0  0  0  0  0  0
   23.0256   20.5494   30.9344 C   0  0  0  0  0  0  0  0  0  0  0  0
   23.6923   19.0332   33.2118 C   0  0  0  0  0  0  0  0  0  0  0  0
   23.6342   19.3037   30.8296 C   0  0  0  0  0  0  0  0  0  0  0  0
   23.7293   17.8728   38.3603 C   0  0  0  0  0  0  0  0  0  0  0  0
   23.9627   18.5417   31.9629 C   0  0  0  0  0  0  0  0  0  0  0  0
   24.6819   16.3067   32.9612 C   0  0  0  0  0  0  0  0  0  0  0  0
   24.6394   17.2371   31.8594 C   0  0  0  0  0  0  0  0  0  0  0  0
   24.9173   17.3741   38.8590 C   0  0  0  0  0  0  0  0  0  0  0  0
   24.8291   19.3989   36.8940 C   0  0  0  0  0  0  0  0  0  0  0  0
   24.8295   20.4569   35.9346 C   0  0  0  0  0  0  0  0  0  0  0  0
   26.0872   17.8457   38.3110 C   0  0  0  0  0  0  0  0  0  0  0  0
   26.0433   18.8270   37.2744 C   0  0  0  0  0  0  0  0  0  0  0  0
   26.0087   20.8289   35.3085 C   0  0  0  0  0  0  0  0  0  0  0  0
   27.2347   19.2931   36.6551 C   0  0  0  0  0  0  0  0  0  0  0  0
   27.2181   20.2395   35.6465 C   0  0  0  0  0  0  0  0  0  0  0  0
   29.5189   18.7543   36.1864 C   0  0  0  0  0  0  0  0  0  0  0  0
   22.0094   22.4161   36.7537 O   0  0  0  0  0  0  0  0  0  0  0  0
   23.0944   23.4350   34.8548 O   0  0  0  0  0  0  0  0  0  0  0  0
   24.3203   23.1545   36.9426 O   0  0  0  0  0  0  0  0  0  0  0  0
   28.3938   18.6983   37.0289 O   0  0  0  0  0  0  0  0  0  0  0  0
   23.6743   18.8282   37.4100 N   0  0  0  0  0  0  0  0  0  0  0  0
   23.6844   21.1549   35.5748 N   0  0  0  0  0  0  0  0  0  0  0  0
   23.2858   22.6290   36.0946 S   0  0  0  0  0  0  0  0  0  0  0  0
  1  3  1  0
  1 25  1  0
  2  3  2  0
  2  4  1  0
  3  5  1  0
  4  6  2  0
  5  8  2  0
  6  8  1  0
  7 11  2  0
  7 24  1  0
  8 10  1  0
  9 10  1  0
 11 14  1  0
 12 13  1  0
 12 15  1  0
 12 24  2  0
 13 16  2  0
 13 25  1  0
 14 15  2  0
 15 17  1  0
 16 18  1  0
 17 18  2  0
 17 23  1  0
 19 23  1  0
 20 26  1  0
 21 26  1  0
 22 26  1  0
 25 26  1  0
M  END
$$$$

     RDKit          3D

 25 26  0  0  0  0  0  0  0  0999 V2000
   22.1570   20.4853   36.2737 C   0  0  0  0  0  0  0  0  0  0  0  0
   22.7996   19.2701   36.2982 C   0  0  0  0  0  0  0  0  0  0  0  0
   22.8695   21.6712   36.0246 C   0  0  0  0  0  0  0  0  0  0  0  0
   22.8843   23.9576   35.5633 C   0  0  0  0  0  0  0  0  0  0  0  0
   23.9842   18.4109   30.4341 C   0  0  0  0  0  0  0  0  0  0  0  0
   24.1849   19.2311   36.1137 C   0  0  0  0  0  0  0  0  0  0  0  0
   24.2872   21.5840   35.8976 C   0  0  0  0  0  0  0  0  0  0  0  0
   24.2644   23.9633   35.4415 C   0  0  0  0  0  0  0  0  0  0  0  0
   24.6176   17.6724   33.5739 C   0  0  0  0  0  0  0  0  0  0  0  0
   24.7788   16.9306   32.2577 C   0  0  2  0  0  0  0  0  0  0  0  0
   24.8258   17.0452   37.1634 C   0  0  0  0  0  0  0  0  0  0  0  0
   24.9589   17.9498   36.0985 C   0  0  1  0  0  0  0  0  0  0  0  0
   25.0086   22.7753   35.6305 C   0  0  0  0  0  0  0  0  0  0  0  0
   25.3333   17.4410   34.7390 C   0  0  0  0  0  0  0  0  0  0  0  0
   25.6854   15.7095   32.3518 C   0  0  0  0  0  0  0  0  0  0  0  0
   25.7838   19.8188   30.1957 C   0  0  0  0  0  0  0  0  0  0  0  0
   26.1246   18.7339   31.0174 C   0  0  0  0  0  0  0  0  0  0  0  0
   26.7812   20.8670   29.9381 C   0  0  0  0  0  0  0  0  0  0  0  0
   22.8344   17.8982   30.1933 O   0  0  0  0  0  0  0  0  0  0  0  0
   24.4389   19.6234   29.9186 O   0  0  0  0  0  0  0  0  0  0  0  0
   26.0298   18.0709   37.0185 O   0  0  0  0  0  0  0  0  0  0  0  0
   22.2219   22.8417   35.8976 N   0  0  0  0  0  0  0  0  0  0  0  0
   24.9077   20.3766   35.9550 N   0  0  0  0  0  0  0  0  0  0  0  0
   25.0128   17.9489   31.1929 N   0  0  0  0  0  0  0  0  0  0  0  0
   24.3403   19.8793   29.4609 S   0  0  0  0  0  0  0  0  0  0  0  0
  1  2  2  0
  1  3  1  0
  2  6  1  0
  3  7  2  0
  3 22  1  0
  4  8  1  0
  4 22  2  0
  5 19  2  0
  5 20  1  0
  5 24  1  0
  6 12  1  0
  6 23  2  0
  7 13  1  0
  7 23  1  0
  8 13  2  0
  9 10  1  0
  9 14  2  3
 10 15  1  1
 10 24  1  0
 12 11  1  1
 12 14  1  0
 12 21  1  0
 16 17  1  0
 16 18  1  0
 17 24  1  0
 20 25  1  0
M  END
$$$$

     RDKit          3D

 15 16  0  0  0  0  0  0  0  0999 V2000
   22.9362   21.9230   35.7792 C   0  0  0  0  0  0  0  0  0  0  0  0
   23.3117   20.8506   34.9781 C   0  0  0  0  0  0  0  0  0  0  0  0
   23.8885   22.7885   36.2835 C   0  0  0  0  0  0  0  0  0  0  0  0
   24.6772   20.6547   34.6516 C   0  0  0  0  0  0  0  0  0  0  0  0
   25.1675   18.2404   34.3358 C   0  0  0  0  0  0  0  0  0  0  0  0
   25.0937   19.4911   33.7602 C   0  0  0  0  0  0  0  0  0  0  0  0
   25.4509   17.0946   33.5733 C   0  0  0  0  0  0  0  0  0  0  0  0
   25.2279   22.6695   35.9814 C   0  0  0  0  0  0  0  0  0  0  0  0
   25.4643   19.6513   32.3948 C   0  0  0  0  0  0  0  0  0  0  0  0
   25.6228   21.5770   35.1816 C   0  0  0  0  0  0  0  0  0  0  0  0
   25.7985   17.2055   32.2219 C   0  0  0  0  0  0  0  0  0  0  0  0
   25.8094   18.4898   31.6171 C   0  0  0  0  0  0  0  0  0  0  0  0
   25.5253   20.7963   31.6943 O   0  0  0  0  0  0  0  0  0  0  0  0
   24.8947   18.0507   36.0356 S   0  0  0  0  0  0  0  0  0  0  0  0
   27.2127   21.1814   34.8139 Cl  0  0  0  0  0  0  0  0  0  0  0  0
  1  2  2  0
  1  3  1  0
  2  4  1  0
  3  8  2  0
  4  6  1  0
  4 10  2  0
  5  6  2  0
  5  7  1  0
  5 14  1  0
  6  9  1  0
  7 11  2  0
  8 10  1  0
  9 12  2  0
  9 13  1  0
 10 15  1  0
 11 12  1  0
M  END
$$$$

     RDKit          3D

 21 23  0  0  0  0  0  0  0  0999 V2000
   22.2796   20.6658   36.4994 C   0  0  0  0  0  0  0  0  0  0  0  0
   23.2697   18.3752   38.0901 C   0  0  0  0  0  0  0  0  0  0  0  0
   23.3390   19.7158   36.0062 C   0  0  0  0  0  0  0  0  0  0  0  0
   23.6871   17.2771   38.8133 C   0  0  0  0  0  0  0  0  0  0  0  0
   23.7639   18.5927   36.7887 C   0  0  0  0  0  0  0  0  0  0  0  0
   23.9027   19.9111   34.7053 C   0  0  0  0  0  0  0  0  0  0  0  0
   24.5639   16.3562   38.2647 C   0  0  0  0  0  0  0  0  0  0  0  0
   24.4675   18.7264   31.6879 C   0  0  0  0  0  0  0  0  0  0  0  0
   24.7133   17.6645   36.1890 C   0  0  0  0  0  0  0  0  0  0  0  0
   24.9191   18.8538   30.3767 C   0  0  0  0  0  0  0  0  0  0  0  0
   25.1342   16.5160   36.9802 C   0  0  0  0  0  0  0  0  0  0  0  0
   25.1872   17.8814   34.8588 C   0  0  0  0  0  0  0  0  0  0  0  0
   25.2196   19.1900   32.7775 C   0  0  0  0  0  0  0  0  0  0  0  0
   26.1522   19.4746   30.1131 C   0  0  0  0  0  0  0  0  0  0  0  0
   26.4720   19.8475   32.5263 C   0  0  0  0  0  0  0  0  0  0  0  0
   26.9384   19.9556   31.2003 C   0  0  0  0  0  0  0  0  0  0  0  0
   21.1324   20.2118   36.7215 O   0  0  0  0  0  0  0  0  0  0  0  0
   22.5375   21.8580   36.6971 O   0  0  0  0  0  0  0  0  0  0  0  0
   24.8055   19.0058   34.1434 N   0  0  0  0  0  0  0  0  0  0  0  0
   25.8154   16.9482   34.1760 N   0  0  0  0  0  0  0  0  0  0  0  0
   22.8263   18.4405   31.8335 Cl  0  0  0  0  0  0  0  0  0  0  0  0
  1  3  1  0
  1 17  2  0
  1 18  1  0
  2  4  2  0
  2  5  1  0
  3  5  1  0
  3  6  2  0
  4  7  1  0
  5  9  2  0
  6 19  1  0
  7 11  2  0
  8 10  2  0
  8 13  1  0
  8 21  1  0
  9 11  1  0
  9 12  1  0
 10 14  1  0
 12 19  1  0
 12 20  2  0
 13 15  2  0
 13 19  1  0
 14 16  2  0
 15 16  1  0
M  END
$$$$

     RDKit          3D

 32 37  0  0  0  0  0  0  0  0999 V2000
   21.2886   18.6652   29.8963 C   0  0  0  0  0  0  0  0  0  0  0  0
   21.3534   19.8347   30.6812 C   0  0  0  0  0  0  0  0  0  0  0  0
   21.9285   18.6309   28.6217 C   0  0  0  0  0  0  0  0  0  0  0  0
   21.8809   19.7533   35.7346 C   0  0  0  0  0  0  0  0  0  0  0  0
   21.9503   22.2362   31.0354 C   0  0  0  0  0  0  0  0  0  0  0  0
   22.0178   18.2843   37.6988 C   0  0  0  0  0  0  0  0  0  0  0  0
   22.0085   20.9929   30.2075 C   0  0  0  0  0  0  0  0  0  0  0  0
   22.6197   19.0088   36.6701 C   0  0  0  0  0  0  0  0  0  0  0  0
   22.6615   19.7732   28.1783 C   0  0  0  0  0  0  0  0  0  0  0  0
   22.6950   20.9458   28.9736 C   0  0  0  0  0  0  0  0  0  0  0  0
   22.7669   17.6495   38.6862 C   0  0  0  0  0  0  0  0  0  0  0  0
   22.9005   22.3116   32.2211 C   0  0  0  0  0  0  0  0  0  0  0  0
   24.1353   17.7208   38.6222 C   0  0  0  0  0  0  0  0  0  0  0  0
   24.0099   19.0376   36.5677 C   0  0  0  0  0  0  0  0  0  0  0  0
   24.6605   21.0121   35.0257 C   0  0  0  0  0  0  0  0  0  0  0  0
   24.7119   18.4229   37.6143 C   0  0  0  0  0  0  0  0  0  0  0  0
   24.7785   20.9547   33.2383 C   0  0  1  0  0  0  0  0  0  0  0  0
   25.1948   17.4562   34.2258 C   0  0  0  0  0  0  0  0  0  0  0  0
   25.0868   18.8155   34.2218 C   0  0  0  0  0  0  0  0  0  0  0  0
   25.1720   19.5461   33.0551 C   0  0  0  0  0  0  0  0  0  0  0  0
   24.9915   19.6003   35.5522 C   0  0  2  0  0  0  0  0  0  0  0  0
   25.4492   18.8958   31.8384 C   0  0  0  0  0  0  0  0  0  0  0  0
   25.4661   16.7995   33.0055 C   0  0  0  0  0  0  0  0  0  0  0  0
   25.6039   17.5156   31.8210 C   0  0  0  0  0  0  0  0  0  0  0  0
   26.0787   18.6136   37.4557 C   0  0  0  0  0  0  0  0  0  0  0  0
   26.2551   19.3200   36.3081 C   0  0  0  0  0  0  0  0  0  0  0  0
   27.0446   18.1587   38.2793 C   0  0  0  0  0  0  0  0  0  0  0  0
   27.5522   19.5372   35.9135 C   0  0  0  0  0  0  0  0  0  0  0  0
   28.3663   18.3442   37.8822 C   0  0  0  0  0  0  0  0  0  0  0  0
   28.6008   19.0293   36.6789 C   0  0  0  0  0  0  0  0  0  0  0  0
   23.1098   23.3837   32.8301 O   0  0  0  0  0  0  0  0  0  0  0  0
   23.4814   21.1444   32.6019 N   0  0  0  0  0  0  0  0  0  0  0  0
  1  2  2  0
  1  3  1  0
  2  7  1  0
  3  9  2  0
  4  8  1  0
  5  7  1  0
  5 12  1  0
  6  8  2  0
  6 11  1  0
  7 10  2  0
  8 14  1  0
  9 10  1  0
 11 13  2  0
 12 31  2  0
 12 32  1  0
 13 16  1  0
 14 16  2  0
 14 21  1  0
 15 17  1  0
 21 15  1  6
 16 25  1  0
 17 20  1  0
 17 32  1  6
 18 19  1  0
 18 23  2  0
 19 20  2  0
 19 21  1  0
 20 22  1  0
 21 26  1  0
 22 24  2  0
 23 24  1  0
 25 26  2  0
 25 27  1  0
 26 28  1  0
 27 29  2  0
 28 30  2  0
 29 30  1  0
M  END
$$$$

     RDKit          3D

 24 25  0  0  0  0  0  0  0  0999 V2000
   22.4342   19.0971   33.2921 C   0  0  0  0  0  0  0  0  0  0  0  0
   22.5860   19.2535   34.6506 C   0  0  0  0  0  0  0  0  0  0  0  0
   22.5993   20.1819   32.4760 C   0  0  0  0  0  0  0  0  0  0  0  0
   22.8925   20.4171   36.7428 C   0  0  0  0  0  0  0  0  0  0  0  0
   22.8211   20.4473   35.2198 C   0  0  0  0  0  0  0  0  0  0  0  0
   22.8955   21.4413   33.0133 C   0  0  0  0  0  0  0  0  0  0  0  0
   23.0303   21.6027   34.4448 C   0  0  0  0  0  0  0  0  0  0  0  0
   23.3502   22.9147   35.0275 C   0  0  0  0  0  0  0  0  0  0  0  0
   23.5028   19.1259   37.2018 C   0  0  0  0  0  0  0  0  0  0  0  0
   24.6036   15.7736   32.8928 C   0  0  0  0  0  0  0  0  0  0  0  0
   25.2605   17.0604   33.3333 C   0  0  0  0  0  0  0  0  0  0  0  0
   25.3191   17.4023   34.6967 C   0  0  0  0  0  0  0  0  0  0  0  0
   25.7968   17.9570   32.3900 C   0  0  0  0  0  0  0  0  0  0  0  0
   25.9373   18.5646   35.1476 C   0  0  0  0  0  0  0  0  0  0  0  0
   26.0370   18.8702   36.6255 C   0  0  0  0  0  0  0  0  0  0  0  0
   26.3769   19.1801   32.8472 C   0  0  0  0  0  0  0  0  0  0  0  0
   26.4378   19.4697   34.1956 C   0  0  0  0  0  0  0  0  0  0  0  0
   28.6053   18.4648   37.2138 C   0  0  0  0  0  0  0  0  0  0  0  0
   29.5935   19.1056   36.2070 C   0  0  0  0  0  0  0  0  0  0  0  0
   24.9621   19.3484   37.2687 O   0  0  0  0  0  0  0  0  0  0  0  0
   20.8071   19.4620   30.5672 N   0  0  0  0  0  0  0  0  0  0  0  0
   27.1971   18.8547   37.2589 N   0  0  0  0  0  0  0  0  0  0  0  0
   22.1057   19.7771   30.8714 S   0  0  0  0  0  0  0  0  0  0  0  0
   27.0265   20.1955   31.5146 Cl  0  0  0  0  0  0  0  0  0  0  0  0
  1  2  2  0
  1  3  1  0
  2  5  1  0
  3  6  2  0
  3 23  1  0
  4  5  1  0
  4  9  1  0
  5  7  2  0
  6  7  1  0
  7  8  1  0
  9 20  1  0
 10 11  1  0
 11 12  2  0
 11 13  1  0
 12 14  1  0
 13 16  2  0
 14 15  1  0
 14 17  2  0
 15 20  1  0
 15 22  2  3
 16 17  1  0
 16 24  1  0
 18 19  1  0
 18 22  1  0
 21 23  1  0
M  END
$$$$

     RDKit          3D

 25 27  0  0  0  0  0  0  0  0999 V2000
   21.7551   22.8183   31.3077 C   0  0  0  0  0  0  0  0  0  0  0  0
   21.8589   24.1176   33.4420 C   0  0  0  0  0  0  0  0  0  0  0  0
   22.3906   23.0984   32.6329 C   0  0  0  0  0  0  0  0  0  0  0  0
   22.6142   19.3767   34.8133 C   0  0  0  0  0  0  0  0  0  0  0  0
   22.5928   19.4224   36.2314 C   0  0  0  0  0  0  0  0  0  0  0  0
   22.4650   24.4533   34.6492 C   0  0  0  0  0  0  0  0  0  0  0  0
   23.5098   22.3650   33.0805 C   0  0  0  0  0  0  0  0  0  0  0  0
   23.5973   23.7354   35.0602 C   0  0  0  0  0  0  0  0  0  0  0  0
   23.8442   19.1633   34.1265 C   0  0  0  0  0  0  0  0  0  0  0  0
   23.8479   19.3482   36.9516 C   0  0  0  0  0  0  0  0  0  0  0  0
   24.1347   21.2367   32.2951 C   0  0  0  0  0  0  0  0  0  0  0  0
   24.1326   22.6892   34.3195 C   0  0  0  0  0  0  0  0  0  0  0  0
   25.0291   19.2253   36.2078 C   0  0  0  0  0  0  0  0  0  0  0  0
   26.3717   19.1014   36.8107 C   0  0  0  0  0  0  0  0  0  0  0  0
   26.5675   18.6662   38.1387 C   0  0  0  0  0  0  0  0  0  0  0  0
   27.2878   19.8779   34.5985 C   0  0  0  0  0  0  0  0  0  0  0  0
   27.4711   19.4049   36.0168 C   0  0  0  0  0  0  0  0  0  0  0  0
   27.8744   18.5818   38.6435 C   0  0  0  0  0  0  0  0  0  0  0  0
   28.7395   19.2919   36.5518 C   0  0  0  0  0  0  0  0  0  0  0  0
   28.9700   18.9021   37.8564 C   0  0  0  0  0  0  0  0  0  0  0  0
   23.8543   18.9501   32.8349 O   0  0  0  0  0  0  0  0  0  0  0  0
   25.4077   21.2074   32.2437 O   0  0  0  0  0  0  0  0  0  0  0  0
   23.4426   20.0579   32.0843 N   0  0  0  0  0  0  0  0  0  0  0  0
   24.9765   19.2564   34.8124 N   0  0  0  0  0  0  0  0  0  0  0  0
   24.3333   24.2068   36.1250 F   0  0  0  0  0  0  0  0  0  0  0  0
  1  3  1  0
  2  3  2  0
  2  6  1  0
  3  7  1  0
  4  5  2  0
  4  9  1  0
  5 10  1  0
  6  8  2  0
  7 11  1  0
  7 12  2  0
  8 12  1  0
  8 25  1  0
  9 21  1  0
  9 24  2  0
 10 13  2  0
 11 22  2  0
 11 23  1  0
 13 14  1  0
 13 24  1  0
 14 15  2  0
 14 17  1  0
 15 18  1  0
 16 17  1  0
 17 19  2  0
 18 20  2  0
 19 20  1  0
 21 23  1  0
M  END
$$$$

     RDKit          3D

 41 45  0  0  0  0  0  0  0  0999 V2000
   21.5892   18.1818   29.0924 C   0  0  0  0  0  0  0  0  0  0  0  0
   21.7698   18.7676   30.3409 C   0  0  0  0  0  0  0  0  0  0  0  0
   21.9562   23.0336   31.1883 C   0  0  0  0  0  0  0  0  0  0  0  0
   22.1966   18.7410   28.0335 C   0  0  0  0  0  0  0  0  0  0  0  0
   21.9702   24.3924   31.4712 C   0  0  0  0  0  0  0  0  0  0  0  0
   22.4032   19.7909   36.1527 C   0  0  0  0  0  0  0  0  0  0  0  0
   22.5747   16.0580   40.1583 C   0  0  0  0  0  0  0  0  0  0  0  0
   22.4654   19.0639   37.3135 C   0  0  0  0  0  0  0  0  0  0  0  0
   22.5123   19.9558   30.4930 C   0  0  0  0  0  0  0  0  0  0  0  0
   22.6532   20.6149   31.8038 C   0  0  0  0  0  0  0  0  0  0  0  0
   22.5171   22.0706   32.0546 C   0  0  0  0  0  0  0  0  0  0  0  0
   22.5234   24.8880   32.6451 C   0  0  0  0  0  0  0  0  0  0  0  0
   22.8522   16.2133   38.8158 C   0  0  0  0  0  0  0  0  0  0  0  0
   22.7444   17.5531   42.2127 C   0  0  0  0  0  0  0  0  0  0  0  0
   23.0254   17.2114   40.7829 C   0  0  2  0  0  0  0  0  0  0  0  0
   23.0637   19.8380   28.1293 C   0  0  0  0  0  0  0  0  0  0  0  0
   23.0306   22.6076   33.2695 C   0  0  0  0  0  0  0  0  0  0  0  0
   23.0722   23.9679   33.5306 C   0  0  0  0  0  0  0  0  0  0  0  0
   23.4497   17.4784   38.7412 C   0  0  1  0  0  0  0  0  0  0  0  0
   23.2666   20.4159   34.0499 C   0  0  0  0  0  0  0  0  0  0  0  0
   23.2175   20.4558   29.3943 C   0  0  0  0  0  0  0  0  0  0  0  0
   23.5427   18.2353   37.5615 C   0  0  0  0  0  0  0  0  0  0  0  0
   23.4667   19.6757   35.2483 C   0  0  0  0  0  0  0  0  0  0  0  0
   23.7220   27.3969   32.3220 C   0  0  0  0  0  0  0  0  0  0  0  0
   24.6549   18.1780   36.6990 C   0  0  0  0  0  0  0  0  0  0  0  0
   24.6529   18.9366   35.5210 C   0  0  0  0  0  0  0  0  0  0  0  0
   25.3795   16.7916   33.6458 C   0  0  0  0  0  0  0  0  0  0  0  0
   25.4990   15.9346   32.5260 C   0  0  0  0  0  0  0  0  0  0  0  0
   25.8085   18.1275   33.5376 C   0  0  0  0  0  0  0  0  0  0  0  0
   26.0267   16.3805   31.3246 C   0  0  0  0  0  0  0  0  0  0  0  0
   26.4309   17.7110   31.1786 C   0  0  0  0  0  0  0  0  0  0  0  0
   26.2683   18.5948   32.2716 C   0  0  0  0  0  0  0  0  0  0  0  0
   26.6226   19.9976   31.9739 C   0  0  0  0  0  0  0  0  0  0  0  0
   26.7252   21.0531   35.4134 C   0  0  0  0  0  0  0  0  0  0  0  0
   26.9861   19.5705   35.1459 C   0  0  0  0  0  0  0  0  0  0  0  0
   21.2618   27.0883   33.2301 O   0  0  0  0  0  0  0  0  0  0  0  0
   22.9460   19.8927   32.8304 N   0  0  0  0  0  0  0  0  0  0  0  0
   23.4623   21.7057   34.2161 N   0  0  0  0  0  0  0  0  0  0  0  0
   23.5366   18.0784   39.9240 N   0  0  0  0  0  0  0  0  0  0  0  0
   25.7632   18.9535   34.6675 N   0  0  0  0  0  0  0  0  0  0  0  0
   22.4137   26.6453   33.0419 S   0  0  1  0  0  0  0  0  0  0  0  0
  1  2  2  0
  1  4  1  0
  2  9  1  0
  3  5  2  0
  3 11  1  0
  4 16  2  0
  5 12  1  0
  6  8  2  0
  6 23  1  0
  7 13  1  0
  7 15  1  0
  8 22  1  0
  9 10  1  0
  9 21  2  0
 10 11  1  0
 10 37  1  0
 11 17  2  0
 12 18  2  0
 12 41  1  0
 13 19  1  0
 15 14  1  6
 15 39  1  0
 16 21  1  0
 17 18  1  0
 17 38  1  0
 19 22  1  6
 19 39  1  0
 20 23  1  0
 20 38  2  0
 22 25  2  0
 23 26  2  0
 41 24  1  6
 25 26  1  0
 26 40  1  0
 27 28  2  0
 27 29  1  0
 28 30  1  0
 29 32  2  0
 29 40  1  0
 30 31  2  0
 31 32  1  0
 32 33  1  0
 34 35  1  0
 35 40  1  0
 36 41  1  0
M  END
$$$$

     RDKit          3D

 35 39  0  0  0  0  0  0  0  0999 V2000
   21.6529   19.3954   30.2197 C   0  0  0  0  0  0  0  0  0  0  0  0
   21.8050   19.6703   31.5766 C   0  0  0  0  0  0  0  0  0  0  0  0
   22.4669   16.3213   39.8059 C   0  0  0  0  0  0  0  0  0  0  0  0
   22.6903   18.7700   29.5470 C   0  0  0  0  0  0  0  0  0  0  0  0
   22.7902   19.7430   27.3938 C   0  0  0  0  0  0  0  0  0  0  0  0
   23.0050   16.1741   38.5171 C   0  0  0  0  0  0  0  0  0  0  0  0
   23.1279   17.1365   40.7239 C   0  0  0  0  0  0  0  0  0  0  0  0
   22.9736   19.2910   32.2468 C   0  0  0  0  0  0  0  0  0  0  0  0
   23.3858   19.8029   36.0081 C   0  0  0  0  0  0  0  0  0  0  0  0
   23.3768   21.3176   36.2434 C   0  0  0  0  0  0  0  0  0  0  0  0
   23.8765   18.4099   30.2160 C   0  0  0  0  0  0  0  0  0  0  0  0
   24.0182   18.6470   31.5787 C   0  0  0  0  0  0  0  0  0  0  0  0
   24.0648   22.3436   34.0541 C   0  0  0  0  0  0  0  0  0  0  0  0
   24.2128   16.8044   38.1574 C   0  0  0  0  0  0  0  0  0  0  0  0
   24.3310   17.7468   40.3757 C   0  0  0  0  0  0  0  0  0  0  0  0
   24.7458   16.7267   36.7711 C   0  0  0  0  0  0  0  0  0  0  0  0
   24.8881   17.5522   39.1200 C   0  0  0  0  0  0  0  0  0  0  0  0
   24.7669   19.2329   36.2589 C   0  0  2  0  0  0  0  0  0  0  0  0
   25.1543   17.5036   34.5795 C   0  0  0  0  0  0  0  0  0  0  0  0
   25.2982   18.1426   32.2539 C   0  0  0  0  0  0  0  0  0  0  0  0
   25.9203   20.0069   35.5695 C   0  0  2  0  0  0  0  0  0  0  0  0
   25.7244   21.5432   35.7419 C   0  0  0  0  0  0  0  0  0  0  0  0
   25.9899   19.6798   34.0783 C   0  0  0  0  0  0  0  0  0  0  0  0
   27.1966   19.5667   36.3312 C   0  0  0  0  0  0  0  0  0  0  0  0
   27.2560   19.4120   37.7544 C   0  0  0  0  0  0  0  0  0  0  0  0
   28.3463   19.3015   35.6144 C   0  0  0  0  0  0  0  0  0  0  0  0
   28.4730   18.9961   38.3607 C   0  0  0  0  0  0  0  0  0  0  0  0
   29.5021   18.9106   36.1957 C   0  0  0  0  0  0  0  0  0  0  0  0
   29.5838   18.7459   37.5781 C   0  0  0  0  0  0  0  0  0  0  0  0
   22.5477   18.5799   28.1987 O   0  0  0  0  0  0  0  0  0  0  0  0
   25.0641   16.3424   34.1635 O   0  0  0  0  0  0  0  0  0  0  0  0
   26.5396   20.3853   33.2485 O   0  0  0  0  0  0  0  0  0  0  0  0
   24.3788   21.9601   35.4007 N   0  0  0  0  0  0  0  0  0  0  0  0
   24.8919   17.7936   35.8905 N   0  0  0  0  0  0  0  0  0  0  0  0
   25.4375   18.5066   33.6518 N   0  0  0  0  0  0  0  0  0  0  0  0
  1  2  2  0
  1  4  1  0
  2  8  1  0
  3  6  2  0
  3  7  1  0
  4 11  2  0
  4 30  1  0
  5 30  1  0
  6 14  1  0
  7 15  2  0
  8 12  2  0
  9 10  1  0
 18  9  1  6
 10 33  1  0
 11 12  1  0
 12 20  1  0
 13 33  1  0
 14 16  1  0
 14 17  2  0
 15 17  1  0
 16 34  1  0
 18 21  1  0
 18 34  1  0
 19 31  2  0
 19 34  1  0
 19 35  1  0
 20 35  1  0
 21 22  1  0
 21 23  1  0
 21 24  1  1
 22 33  1  0
 23 32  2  0
 23 35  1  0
 24 25  2  0
 24 26  1  0
 25 27  1  0
 26 28  2  0
 27 29  2  0
 28 29  1  0
M  END
$$$$

     RDKit          3D

 43 50  0  0  0  0  0  0  0  0999 V2000
   22.4065   16.5309   41.0939 C   0  0  0  0  0  0  0  0  0  0  0  0
   22.3202   18.8006   29.1637 C   0  0  0  0  0  0  0  0  0  0  0  0
   22.5450   15.7975   39.8967 C   0  0  0  0  0  0  0  0  0  0  0  0
   22.6513   19.1374   32.7197 C   0  0  0  0  0  0  0  0  0  0  0  0
   22.5408   19.3921   30.4312 C   0  0  0  0  0  0  0  0  0  0  0  0
   22.5917   19.5386   28.0062 C   0  0  0  0  0  0  0  0  0  0  0  0
   22.6182   21.4400   35.1117 C   0  0  0  0  0  0  0  0  0  0  0  0
   23.1941   17.6330   41.3271 C   0  0  0  0  0  0  0  0  0  0  0  0
   23.1123   20.4354   32.9274 C   0  0  0  0  0  0  0  0  0  0  0  0
   23.0403   20.8354   28.0992 C   0  0  0  0  0  0  0  0  0  0  0  0
   22.9938   20.7437   30.5106 C   0  0  0  0  0  0  0  0  0  0  0  0
   23.2686   21.2668   31.8221 C   0  0  0  0  0  0  0  0  0  0  0  0
   23.2355   21.4370   29.3235 C   0  0  0  0  0  0  0  0  0  0  0  0
   23.4437   22.1667   36.1665 C   0  0  0  0  0  0  0  0  0  0  0  0
   23.4836   16.2434   38.9346 C   0  0  0  0  0  0  0  0  0  0  0  0
   24.1398   18.0272   40.3976 C   0  0  0  0  0  0  0  0  0  0  0  0
   24.2350   17.3715   39.1671 C   0  0  0  0  0  0  0  0  0  0  0  0
   24.9298   18.1921   36.8780 C   0  0  0  0  0  0  0  0  0  0  0  0
   24.8854   21.2158   34.4782 C   0  0  1  0  0  0  0  0  0  0  0  0
   24.9088   21.7961   35.8849 C   0  0  0  0  0  0  0  0  0  0  0  0
   25.2054   17.8993   38.1774 C   0  0  0  0  0  0  0  0  0  0  0  0
   25.4958   17.7920   33.8364 C   0  0  0  0  0  0  0  0  0  0  0  0
   25.9775   17.9105   32.4666 C   0  0  0  0  0  0  0  0  0  0  0  0
   25.9620   18.6378   36.0279 C   0  0  0  0  0  0  0  0  0  0  0  0
   26.0130   20.2143   34.2180 C   0  0  2  0  0  0  0  0  0  0  0  0
   26.4263   16.8023   30.4116 C   0  0  0  0  0  0  0  0  0  0  0  0
   26.4641   19.1168   31.9839 C   0  0  0  0  0  0  0  0  0  0  0  0
   26.5774   20.3559   32.8061 C   0  0  0  0  0  0  0  0  0  0  0  0
   26.8818   17.9784   29.8780 C   0  0  0  0  0  0  0  0  0  0  0  0
   26.8141   19.1895   30.6137 C   0  0  0  0  0  0  0  0  0  0  0  0
   27.4485   18.4180   37.9251 C   0  0  0  0  0  0  0  0  0  0  0  0
   27.2949   18.7202   36.5691 C   0  0  0  0  0  0  0  0  0  0  0  0
   28.6698   18.4686   38.5967 C   0  0  0  0  0  0  0  0  0  0  0  0
   28.4882   19.0403   35.8513 C   0  0  0  0  0  0  0  0  0  0  0  0
   29.7017   19.0227   36.5275 C   0  0  0  0  0  0  0  0  0  0  0  0
   29.8119   18.7634   37.9113 C   0  0  0  0  0  0  0  0  0  0  0  0
   24.9913   16.7202   34.1637 O   0  0  0  0  0  0  0  0  0  0  0  0
   22.2684   18.6690   31.5454 N   0  0  0  0  0  0  0  0  0  0  0  0
   23.5348   20.7369   34.2321 N   0  0  0  0  0  0  0  0  0  0  0  0
   25.6952   18.8494   34.6656 N   0  0  0  0  0  0  0  0  0  0  0  0
   26.0634   16.7596   31.7345 N   0  0  0  0  0  0  0  0  0  0  0  0
   26.4035   18.0625   38.6706 N   0  0  0  0  0  0  0  0  0  0  0  0
   31.1698   19.2482   35.7952 Cl  0  0  0  0  0  0  0  0  0  0  0  0
  1  3  2  0
  1  8  1  0
  2  5  2  0
  2  6  1  0
  3 15  1  0
  4  9  1  0
  4 38  2  0
  5 11  1  0
  5 38  1  0
  6 10  2  0
  7 14  1  0
  7 39  1  0
  8 16  2  0
  9 12  2  0
  9 39  1  0
 10 13  1  0
 11 12  1  0
 11 13  2  0
 14 20  1  0
 15 17  2  0
 16 17  1  0
 17 21  1  0
 18 21  2  0
 18 24  1  0
 19 20  1  1
 19 25  1  0
 19 39  1  0
 21 42  1  0
 22 23  1  0
 22 37  2  0
 22 40  1  0
 23 27  2  0
 23 41  1  0
 24 32  2  0
 24 40  1  0
 25 28  1  6
 25 40  1  0
 26 29  1  0
 26 41  2  0
 27 28  1  0
 27 30  1  0
 29 30  2  0
 31 32  1  0
 31 33  1  0
 31 42  2  0
 32 34  1  0
 33 36  2  0
 34 35  2  0
 35 36  1  0
 35 43  1  0
M  END
$$$$

     RDKit          3D

 23 25  0  0  0  0  0  0  0  0999 V2000
   22.4592   19.3050   35.6674 C   0  0  0  0  0  0  0  0  0  0  0  0
   22.6732   20.5624   34.9499 C   0  0  2  0  0  0  0  0  0  0  0  0
   22.6983   21.8007   31.4259 C   0  0  0  0  0  0  0  0  0  0  0  0
   22.8577   19.4100   31.3949 C   0  0  0  0  0  0  0  0  0  0  0  0
   22.9211   19.3933   32.7720 C   0  0  0  0  0  0  0  0  0  0  0  0
   22.7839   20.6210   30.7185 C   0  0  0  0  0  0  0  0  0  0  0  0
   22.7825   20.5739   33.4610 C   0  0  0  0  0  0  0  0  0  0  0  0
   22.7256   21.7697   32.8263 C   0  0  0  0  0  0  0  0  0  0  0  0
   23.2834   19.2455   36.9219 C   0  0  0  0  0  0  0  0  0  0  0  0
   23.7125   21.4855   35.4635 C   0  0  0  0  0  0  0  0  0  0  0  0
   24.6881   19.5699   36.6394 C   0  0  0  0  0  0  0  0  0  0  0  0
   24.8823   20.6274   35.7505 C   0  0  0  0  0  0  0  0  0  0  0  0
   25.7777   18.8959   37.1599 C   0  0  0  0  0  0  0  0  0  0  0  0
   26.1103   20.9280   35.2572 C   0  0  0  0  0  0  0  0  0  0  0  0
   27.0704   19.2601   36.7114 C   0  0  0  0  0  0  0  0  0  0  0  0
   27.2278   20.2430   35.7166 C   0  0  0  0  0  0  0  0  0  0  0  0
   29.4011   18.7784   36.6189 C   0  0  0  0  0  0  0  0  0  0  0  0
   21.4546   20.1053   28.5559 O   0  0  0  0  0  0  0  0  0  0  0  0
   22.9690   18.6948   38.0074 O   0  0  0  0  0  0  0  0  0  0  0  0
   23.0938   21.8925   28.4166 O   0  0  0  0  0  0  0  0  0  0  0  0
   23.9335   19.7115   28.4906 O   0  0  0  0  0  0  0  0  0  0  0  0
   28.1411   18.6313   37.2390 O   0  0  0  0  0  0  0  0  0  0  0  0
   22.7755   20.5756   28.9535 S   0  0  0  0  0  0  0  0  0  0  0  0
  1  2  1  0
  1  9  1  0
  2  7  1  6
  2 10  1  0
  3  6  2  0
  3  8  1  0
  4  5  2  0
  4  6  1  0
  5  7  1  0
  6 23  1  0
  7  8  2  0
  9 11  1  0
  9 19  2  0
 10 12  1  0
 11 12  2  0
 11 13  1  0
 12 14  1  0
 13 15  2  0
 14 16  2  0
 15 16  1  0
 15 22  1  0
 17 22  1  0
 18 23  1  0
 20 23  1  0
 21 23  1  0
M  END
$$$$

     RDKit          3D

 23 24  0  0  0  0  0  0  0  0999 V2000
   22.1976   22.8914   36.0303 C   0  0  0  0  0  0  0  0  0  0  0  0
   22.4238   19.5434   32.6874 C   0  0  0  0  0  0  0  0  0  0  0  0
   22.4684   20.4972   36.4137 C   0  0  0  0  0  0  0  0  0  0  0  0
   22.6830   24.1473   35.7024 C   0  0  0  0  0  0  0  0  0  0  0  0
   22.7575   19.2219   31.2304 C   0  0  0  0  0  0  0  0  0  0  0  0
   22.9779   21.7451   36.0484 C   0  0  0  0  0  0  0  0  0  0  0  0
   23.2849   19.3641   36.4888 C   0  0  0  0  0  0  0  0  0  0  0  0
   23.8596   18.1295   31.2806 C   0  0  0  0  0  0  0  0  0  0  0  0
   24.0401   24.2742   35.4718 C   0  0  0  0  0  0  0  0  0  0  0  0
   24.3502   21.8560   35.7559 C   0  0  0  0  0  0  0  0  0  0  0  0
   24.6584   19.4254   36.1397 C   0  0  2  0  0  0  0  0  0  0  0  0
   24.8193   18.6259   32.3563 C   0  0  2  0  0  0  0  0  0  0  0  0
   24.8562   23.1504   35.4311 C   0  0  0  0  0  0  0  0  0  0  0  0
   25.1689   20.7138   35.7435 C   0  0  0  0  0  0  0  0  0  0  0  0
   25.4902   16.2079   32.8797 C   0  0  0  0  0  0  0  0  0  0  0  0
   25.6807   19.7700   31.8945 C   0  0  0  0  0  0  0  0  0  0  0  0
   26.0368   18.2080   34.2469 C   0  0  0  0  0  0  0  0  0  0  0  0
   26.0387   19.7460   30.4387 C   0  0  0  0  0  0  0  0  0  0  0  0
   24.9198   15.6160   33.8533 O   0  0  0  0  0  0  0  0  0  0  0  0
   25.9789   15.5211   31.8766 O   0  0  0  0  0  0  0  0  0  0  0  0
   27.0329   18.8975   34.3748 O   0  0  0  0  0  0  0  0  0  0  0  0
   24.9293   18.3799   34.9824 N   0  0  0  0  0  0  0  0  0  0  0  0
   25.7370   17.5956   32.9358 N   0  0  0  0  0  0  0  0  0  0  0  0
  1  4  2  0
  1  6  1  0
  2  5  1  0
  3  6  2  0
  3  7  1  0
  4  9  1  0
  5  8  1  0
  6 10  1  0
  7 11  1  0
 12  8  1  6
  9 13  2  0
 10 13  1  0
 10 14  2  0
 11 14  1  0
 11 22  1  6
 12 16  1  0
 12 23  1  0
 15 19  2  0
 15 20  1  0
 15 23  1  0
 16 18  1  0
 17 21  2  0
 17 22  1  0
 17 23  1  0
M  END
$$$$

     RDKit          3D

 16 17  0  0  0  0  0  0  0  0999 V2000
   22.9612   21.8803   35.2875 C   0  0  0  0  0  0  0  0  0  0  0  0
   23.3525   20.7655   34.5205 C   0  0  0  0  0  0  0  0  0  0  0  0
   23.4117   23.9883   36.5554 C   0  0  0  0  0  0  0  0  0  0  0  0
   23.9093   22.7547   35.8248 C   0  0  0  0  0  0  0  0  0  0  0  0
   24.6763   20.4514   34.3319 C   0  0  0  0  0  0  0  0  0  0  0  0
   24.7282   17.9166   33.8880 C   0  0  0  0  0  0  0  0  0  0  0  0
   25.1549   16.8459   33.1053 C   0  0  0  0  0  0  0  0  0  0  0  0
   25.1327   19.2428   33.5466 C   0  0  0  0  0  0  0  0  0  0  0  0
   25.2561   22.4490   35.6646 C   0  0  0  0  0  0  0  0  0  0  0  0
   25.6522   21.2885   34.8898 C   0  0  0  0  0  0  0  0  0  0  0  0
   26.0078   17.0542   32.0110 C   0  0  0  0  0  0  0  0  0  0  0  0
   25.9792   19.4369   32.4330 C   0  0  0  0  0  0  0  0  0  0  0  0
   26.4193   18.3608   31.7053 C   0  0  0  0  0  0  0  0  0  0  0  0
   22.3502   23.8707   37.2095 O   0  0  0  0  0  0  0  0  0  0  0  0
   23.8633   25.1403   36.3624 N   0  0  0  0  0  0  0  0  0  0  0  0
   22.1213   20.0181   33.8194 Cl  0  0  0  0  0  0  0  0  0  0  0  0
  1  2  1  0
  1  4  1  0
  2  5  2  0
  2 16  1  0
  3  4  1  0
  3 14  2  0
  3 15  1  0
  4  9  2  0
  5  8  1  0
  5 10  1  0
  6  7  2  0
  6  8  1  0
  7 11  1  0
  8 12  1  0
  9 10  1  0
 11 13  1  0
 12 13  2  0
M  END
$$$$

     RDKit          3D

 27 29  0  0  0  0  0  0  0  0999 V2000
   21.8217   18.0797   29.4062 C   0  0  0  0  0  0  0  0  0  0  0  0
   21.9166   19.3364   30.2153 C   0  0  0  0  0  0  0  0  0  0  0  0
   22.6646   16.8660   38.5975 C   0  0  0  0  0  0  0  0  0  0  0  0
   22.5914   18.0647   37.8381 C   0  0  0  0  0  0  0  0  0  0  0  0
   22.4780   20.6340   36.6325 C   0  0  0  0  0  0  0  0  0  0  0  0
   22.9488   19.9127   34.0101 C   0  0  0  0  0  0  0  0  0  0  0  0
   23.5682   19.7906   36.3859 C   0  0  1  0  0  0  0  0  0  0  0  0
   23.8904   16.2179   38.7182 C   0  0  0  0  0  0  0  0  0  0  0  0
   23.7488   18.5711   37.2166 C   0  0  0  0  0  0  0  0  0  0  0  0
   23.9624   19.7918   34.9490 C   0  0  0  0  0  0  0  0  0  0  0  0
   24.3788   19.6934   32.1694 C   0  0  0  0  0  0  0  0  0  0  0  0
   24.5777   19.6424   30.7593 C   0  0  0  0  0  0  0  0  0  0  0  0
   24.9652   17.8996   37.3394 C   0  0  0  0  0  0  0  0  0  0  0  0
   25.0315   16.7146   38.1005 C   0  0  0  0  0  0  0  0  0  0  0  0
   25.4583   19.4118   33.0155 C   0  0  0  0  0  0  0  0  0  0  0  0
   25.2371   19.5525   34.3915 C   0  0  0  0  0  0  0  0  0  0  0  0
   25.7991   19.2198   30.2229 C   0  0  0  0  0  0  0  0  0  0  0  0
   26.8549   18.9214   31.0883 C   0  0  0  0  0  0  0  0  0  0  0  0
   26.7176   19.0320   32.4654 C   0  0  0  0  0  0  0  0  0  0  0  0
   28.1489   18.4989   30.4645 C   0  0  0  0  0  0  0  0  0  0  0  0
   22.4397   21.7229   36.0258 O   0  0  0  0  0  0  0  0  0  0  0  0
   23.2003   21.5400   29.9338 O   0  0  0  0  0  0  0  0  0  0  0  0
   23.7505   19.7057   28.4058 O   0  0  0  0  0  0  0  0  0  0  0  0
   23.1599   19.9982   32.7228 N   0  0  0  0  0  0  0  0  0  0  0  0
   23.3783   20.1398   29.7444 S   0  0  0  0  0  0  0  0  0  0  0  0
   23.9413   15.0906   39.4045 F   0  0  0  0  0  0  0  0  0  0  0  0
   28.0300   17.3175   29.9009 F   0  0  0  0  0  0  0  0  0  0  0  0
  1  2  1  0
  2 25  1  0
  3  4  2  0
  3  8  1  0
  4  9  1  0
  7  5  1  6
  5 21  2  0
  6 10  2  0
  6 24  1  0
  7  9  1  0
  7 10  1  0
  8 14  2  0
  8 26  1  0
  9 13  2  0
 10 16  1  0
 11 12  1  0
 11 15  1  0
 11 24  2  0
 12 17  2  0
 12 25  1  0
 13 14  1  0
 15 16  2  0
 15 19  1  0
 17 18  1  0
 18 19  2  0
 18 20  1  0
 20 27  1  0
 22 25  1  0
 23 25  1  0
M  END
$$$$

     RDKit          3D

 36 40  0  0  0  0  0  0  0  0999 V2000
   21.0388   17.9858   29.4831 C   0  0  0  0  0  0  0  0  0  0  0  0
   21.4338   17.0543   28.3548 C   0  0  0  0  0  0  0  0  0  0  0  0
   21.7054   20.1080   30.5382 C   0  0  0  0  0  0  0  0  0  0  0  0
   21.8782   18.9037   36.8104 C   0  0  0  0  0  0  0  0  0  0  0  0
   22.1577   22.3524   31.6207 C   0  0  0  0  0  0  0  0  0  0  0  0
   22.3097   18.7931   26.9279 C   0  0  0  0  0  0  0  0  0  0  0  0
   22.4555   19.6467   28.2114 C   0  0  0  0  0  0  0  0  0  0  0  0
   22.6018   21.3131   30.5854 C   0  0  0  0  0  0  0  0  0  0  0  0
   22.8273   18.3649   38.1315 C   0  0  0  0  0  0  0  0  0  0  0  0
   22.7524   19.1413   35.8270 C   0  0  0  0  0  0  0  0  0  0  0  0
   22.8546   22.2193   32.9738 C   0  0  0  0  0  0  0  0  0  0  0  0
   23.0635   23.4612   35.1412 C   0  0  2  0  0  0  0  0  0  0  0  0
   24.1587   18.4278   37.5583 C   0  0  0  0  0  0  0  0  0  0  0  0
   24.0726   18.9222   36.2227 C   0  0  2  0  0  0  0  0  0  0  0  0
   24.4626   23.7828   35.6358 C   0  0  0  0  0  0  0  0  0  0  0  0
   24.7663   16.8336   32.6068 C   0  0  0  0  0  0  0  0  0  0  0  0
   24.8038   17.3927   33.8834 C   0  0  0  0  0  0  0  0  0  0  0  0
   25.1980   17.6131   31.5446 C   0  0  0  0  0  0  0  0  0  0  0  0
   25.2329   18.7175   34.0798 C   0  0  0  0  0  0  0  0  0  0  0  0
   25.2470   19.3429   35.4518 C   0  0  2  0  0  0  0  0  0  0  0  0
   25.6109   18.9202   31.7189 C   0  0  0  0  0  0  0  0  0  0  0  0
   25.6272   19.4522   32.9759 C   0  0  1  0  0  0  0  0  0  0  0  0
   26.4833   18.5614   37.5730 C   0  0  0  0  0  0  0  0  0  0  0  0
   26.4806   19.0738   36.2133 C   0  0  0  0  0  0  0  0  0  0  0  0
   27.6717   18.2914   38.2403 C   0  0  0  0  0  0  0  0  0  0  0  0
   27.7063   19.4592   35.6503 C   0  0  0  0  0  0  0  0  0  0  0  0
   28.8703   18.6417   37.6277 C   0  0  0  0  0  0  0  0  0  0  0  0
   28.8657   19.1684   36.3463 C   0  0  0  0  0  0  0  0  0  0  0  0
   21.1240   19.7871   31.5141 O   0  0  0  0  0  0  0  0  0  0  0  0
   21.4620   17.7380   27.0426 O   0  0  0  0  0  0  0  0  0  0  0  0
   22.4905   22.5128   35.8870 O   0  0  0  0  0  0  0  0  0  0  0  0
   22.8483   23.3158   33.7735 O   0  0  0  0  0  0  0  0  0  0  0  0
   23.4391   21.1898   33.3004 O   0  0  0  0  0  0  0  0  0  0  0  0
   21.7039   19.2930   29.4061 N   0  0  0  0  0  0  0  0  0  0  0  0
   25.3131   18.1561   38.1900 N   0  0  0  0  0  0  0  0  0  0  0  0
   25.2946   21.2239   33.0423 S   0  0  0  0  0  0  0  0  0  0  0  0
  1  2  1  0
  1 34  1  0
  2 30  1  0
  3  8  1  0
  3 29  2  0
  3 34  1  0
  4  9  1  0
  4 10  1  0
  5  8  1  0
  5 11  1  0
  6  7  1  0
  6 30  1  0
  7 34  1  0
  9 13  1  0
 14 10  1  1
 11 32  1  0
 11 33  1  0
 12 15  1  6
 12 31  1  0
 12 32  1  0
 13 14  1  0
 13 35  2  0
 14 20  1  0
 16 17  1  0
 16 18  1  0
 17 19  2  0
 18 21  2  0
 20 19  1  6
 19 22  1  0
 20 24  1  0
 21 22  1  0
 22 36  1  6
 23 24  2  0
 23 25  1  0
 23 35  1  0
 24 26  1  0
 25 27  2  0
 26 28  2  0
 27 28  1  0
 33 36  1  0
M  END
$$$$

     RDKit          3D

 43 49  0  0  0  0  0  0  0  0999 V2000
   21.1013   25.9348   32.6529 C   0  0  0  0  0  0  0  0  0  0  0  0
   21.2447   24.7031   32.0276 C   0  0  0  0  0  0  0  0  0  0  0  0
   21.4423   27.4575   34.5965 C   0  0  0  0  0  0  0  0  0  0  0  0
   21.6518   20.0257   30.9522 C   0  0  0  0  0  0  0  0  0  0  0  0
   21.5898   21.1421   29.9758 C   0  0  0  0  0  0  0  0  0  0  0  0
   21.6865   26.1624   33.9021 C   0  0  0  0  0  0  0  0  0  0  0  0
   21.7910   20.9180   28.7018 C   0  0  0  0  0  0  0  0  0  0  0  0
   22.0130   23.6775   32.6349 C   0  0  0  0  0  0  0  0  0  0  0  0
   22.6817   18.4920   38.3842 C   0  0  0  0  0  0  0  0  0  0  0  0
   22.6456   23.9218   33.8910 C   0  0  0  0  0  0  0  0  0  0  0  0
   22.4689   25.1484   34.5214 C   0  0  0  0  0  0  0  0  0  0  0  0
   23.0310   17.7010   39.4500 C   0  0  0  0  0  0  0  0  0  0  0  0
   22.9968   19.2078   36.1001 C   0  0  0  0  0  0  0  0  0  0  0  0
   22.9813   19.5921   33.6648 C   0  0  0  0  0  0  0  0  0  0  0  0
   23.0718   25.3444   35.8130 C   0  0  0  0  0  0  0  0  0  0  0  0
   23.4220   18.4847   37.1983 C   0  0  0  0  0  0  0  0  0  0  0  0
   23.4415   22.9441   34.5270 C   0  0  0  0  0  0  0  0  0  0  0  0
   23.5860   19.0383   34.8324 C   0  0  0  0  0  0  0  0  0  0  0  0
   23.5054   19.3363   32.4127 C   0  0  0  0  0  0  0  0  0  0  0  0
   23.8570   19.2760   30.1444 C   0  0  0  0  0  0  0  0  0  0  0  0
   23.8195   24.3461   36.4045 C   0  0  0  0  0  0  0  0  0  0  0  0
   24.0428   23.1551   35.7530 C   0  0  0  0  0  0  0  0  0  0  0  0
   24.2124   16.9325   39.4058 C   0  0  0  0  0  0  0  0  0  0  0  0
   24.5871   17.6702   37.1189 C   0  0  0  0  0  0  0  0  0  0  0  0
   24.6630   18.6079   32.2571 C   0  0  0  0  0  0  0  0  0  0  0  0
   24.7298   18.2342   34.7018 C   0  0  0  0  0  0  0  0  0  0  0  0
   24.9499   18.4472   30.7762 C   0  0  2  0  0  0  0  0  0  0  0  0
   24.9815   16.9340   38.2461 C   0  0  0  0  0  0  0  0  0  0  0  0
   25.3056   17.6101   35.8728 C   0  0  0  0  0  0  0  0  0  0  0  0
   25.2861   18.0683   33.3926 C   0  0  0  0  0  0  0  0  0  0  0  0
   26.3191   18.8582   30.3673 C   0  0  0  0  0  0  0  0  0  0  0  0
   26.6648   20.1668   29.9377 C   0  0  0  0  0  0  0  0  0  0  0  0
   27.2907   17.9098   30.3500 C   0  0  0  0  0  0  0  0  0  0  0  0
   27.9433   20.4408   29.5178 C   0  0  0  0  0  0  0  0  0  0  0  0
   28.5528   18.1586   29.9291 C   0  0  0  0  0  0  0  0  0  0  0  0
   28.8987   19.4015   29.4432 C   0  0  0  0  0  0  0  0  0  0  0  0
   21.5749   22.1911   30.8937 O   0  0  0  0  0  0  0  0  0  0  0  0
   30.2035   20.6885   27.6604 O   0  0  0  0  0  0  0  0  0  0  0  0
   31.4910   19.8330   29.6857 O   0  0  0  0  0  0  0  0  0  0  0  0
   22.1346   22.4793   31.9775 N   0  0  0  0  0  0  0  0  0  0  0  0
   23.0019   19.6998   31.1565 N   0  0  0  0  0  0  0  0  0  0  0  0
   30.3923   19.6589   28.7114 S   0  0  0  0  0  0  0  0  0  0  0  0
   26.8881   16.6928   30.5791 F   0  0  0  0  0  0  0  0  0  0  0  0
  1  2  2  0
  1  6  1  0
  2  8  1  0
  3  6  1  0
  4  5  1  0
  4 41  1  0
  5  7  2  0
  5 37  1  0
  6 11  1  0
  8 10  1  0
  8 40  2  3
  9 12  2  0
  9 16  1  0
 10 11  2  0
 10 17  1  0
 11 15  1  0
 12 23  1  0
 13 16  2  0
 13 18  1  0
 14 18  2  0
 14 19  1  0
 15 21  2  0
 16 24  1  0
 17 22  2  0
 18 26  1  0
 19 25  2  0
 19 41  1  0
 20 27  1  0
 20 41  1  0
 21 22  1  0
 23 28  2  0
 24 28  1  0
 24 29  2  0
 25 27  1  0
 25 30  1  0
 26 29  1  0
 26 30  2  0
 27 31  1  1
 31 32  2  0
 31 33  1  0
 32 34  1  0
 33 35  2  0
 33 43  1  0
 34 36  2  0
 35 36  1  0
 36 42  1  0
 37 40  1  0
 38 42  1  0
 39 42  1  0
M  END
$$$$

     RDKit          3D

 28 31  0  0  0  0  0  0  0  0999 V2000
   21.7992   19.8758   30.0223 C   0  0  0  0  0  0  0  0  0  0  0  0
   22.2570   16.9144   41.5238 C   0  0  0  0  0  0  0  0  0  0  0  0
   22.3184   19.3924   31.2322 C   0  0  0  0  0  0  0  0  0  0  0  0
   22.4035   21.7139   35.9505 C   0  0  0  0  0  0  0  0  0  0  0  0
   22.6636   17.7968   38.6549 C   0  0  0  0  0  0  0  0  0  0  0  0
   22.6464   20.4631   29.0912 C   0  0  0  0  0  0  0  0  0  0  0  0
   22.8693   20.6409   35.2268 C   0  0  0  0  0  0  0  0  0  0  0  0
   23.0342   16.6105   39.2672 C   0  0  0  0  0  0  0  0  0  0  0  0
   23.1740   22.8186   36.1623 C   0  0  0  0  0  0  0  0  0  0  0  0
   23.3915   18.3478   37.6272 C   0  0  0  0  0  0  0  0  0  0  0  0
   23.6594   19.5184   31.5372 C   0  0  0  0  0  0  0  0  0  0  0  0
   24.1739   15.9330   38.7922 C   0  0  0  0  0  0  0  0  0  0  0  0
   24.2043   18.8563   32.7267 C   0  0  0  0  0  0  0  0  0  0  0  0
   23.9988   20.5771   29.4007 C   0  0  0  0  0  0  0  0  0  0  0  0
   24.1239   20.6552   34.6499 C   0  0  0  0  0  0  0  0  0  0  0  0
   24.4564   19.3144   34.0411 C   0  0  0  0  0  0  0  0  0  0  0  0
   24.4328   22.8638   35.6007 C   0  0  0  0  0  0  0  0  0  0  0  0
   24.5656   17.4773   32.6389 C   0  0  0  0  0  0  0  0  0  0  0  0
   24.5626   17.6887   37.2009 C   0  0  0  0  0  0  0  0  0  0  0  0
   24.5069   20.1237   30.6152 C   0  0  0  0  0  0  0  0  0  0  0  0
   24.9282   16.4677   37.7493 C   0  0  0  0  0  0  0  0  0  0  0  0
   24.9408   18.2165   34.7727 C   0  0  0  0  0  0  0  0  0  0  0  0
   24.9567   21.7565   34.8321 C   0  0  0  0  0  0  0  0  0  0  0  0
   25.0033   17.0458   33.9889 C   0  0  0  0  0  0  0  0  0  0  0  0
   25.4378   18.3069   36.1627 C   0  0  0  0  0  0  0  0  0  0  0  0
   22.1893   20.9048   27.9006 O   0  0  0  0  0  0  0  0  0  0  0  0
   22.2980   16.1035   40.3300 O   0  0  0  0  0  0  0  0  0  0  0  0
   22.5608   23.7985   36.9221 O   0  0  0  0  0  0  0  0  0  0  0  0
  1  3  1  0
  1  6  1  0
  2 27  1  0
  3 11  2  0
  4  7  2  0
  4  9  1  0
  5  8  2  0
  5 10  1  0
  6 14  2  0
  6 26  1  0
  7 15  1  0
  8 12  1  0
  8 27  1  0
  9 17  2  0
  9 28  1  0
 10 19  2  0
 11 13  1  0
 11 20  1  0
 12 21  2  0
 13 16  1  0
 13 18  1  0
 14 20  1  0
 15 16  1  0
 15 23  2  0
 16 22  2  0
 17 23  1  0
 18 24  1  0
 19 21  1  0
 19 25  1  0
 22 24  1  0
 22 25  1  0
M  END
$$$$

     RDKit          3D

 42 47  0  0  0  0  0  0  0  0999 V2000
   21.5403   24.2463   31.3736 C   0  0  0  0  0  0  0  0  0  0  0  0
   21.5257   25.5875   31.1344 C   0  0  0  0  0  0  0  0  0  0  0  0
   22.1240   23.3381   30.4741 C   0  0  0  0  0  0  0  0  0  0  0  0
   22.0770   26.0521   29.8938 C   0  0  0  0  0  0  0  0  0  0  0  0
   22.1611   27.5069   29.4962 C   0  0  0  0  0  0  0  0  0  0  0  0
   22.6352   23.8294   29.2678 C   0  0  0  0  0  0  0  0  0  0  0  0
   22.5904   25.1668   28.9537 C   0  0  0  0  0  0  0  0  0  0  0  0
   22.7636   17.5633   38.7142 C   0  0  0  0  0  0  0  0  0  0  0  0
   22.8998   18.5938   37.7660 C   0  0  0  0  0  0  0  0  0  0  0  0
   22.7518   22.3736   35.5973 C   0  0  0  0  0  0  0  0  0  0  0  0
   22.8883   23.4082   36.4925 C   0  0  0  0  0  0  0  0  0  0  0  0
   22.9666   21.3511   33.3542 C   0  0  2  0  0  0  0  0  0  0  0  0
   23.1772   22.5157   34.2757 C   0  0  0  0  0  0  0  0  0  0  0  0
   23.3163   24.6283   36.0442 C   0  0  0  0  0  0  0  0  0  0  0  0
   23.5440   20.0536   33.8791 C   0  0  0  0  0  0  0  0  0  0  0  0
   23.6361   23.7374   33.8346 C   0  0  0  0  0  0  0  0  0  0  0  0
   23.6989   24.8126   34.7013 C   0  0  0  0  0  0  0  0  0  0  0  0
   23.8649   16.9462   39.2429 C   0  0  0  0  0  0  0  0  0  0  0  0
   24.1754   18.9480   37.3675 C   0  0  0  0  0  0  0  0  0  0  0  0
   25.1442   17.4217   34.0752 C   0  0  0  0  0  0  0  0  0  0  0  0
   25.1265   17.3206   38.8660 C   0  0  0  0  0  0  0  0  0  0  0  0
   25.0626   19.9476   34.1236 C   0  0  2  0  0  0  0  0  0  0  0  0
   25.3743   16.2243   33.3601 C   0  0  0  0  0  0  0  0  0  0  0  0
   25.3171   18.3248   37.9051 C   0  0  1  0  0  0  0  0  0  0  0  0
   25.3491   18.6501   33.3957 C   0  0  0  0  0  0  0  0  0  0  0  0
   25.3884   19.9302   35.5798 C   0  0  2  0  0  0  0  0  0  0  0  0
   25.8395   16.2739   32.0534 C   0  0  0  0  0  0  0  0  0  0  0  0
   25.7421   18.6735   32.0474 C   0  0  0  0  0  0  0  0  0  0  0  0
   26.0266   17.5069   31.3680 C   0  0  0  0  0  0  0  0  0  0  0  0
   26.6155   18.6986   37.3714 C   0  0  0  0  0  0  0  0  0  0  0  0
   26.6568   19.4109   36.1453 C   0  0  0  0  0  0  0  0  0  0  0  0
   27.7884   18.3297   37.9931 C   0  0  0  0  0  0  0  0  0  0  0  0
   27.8777   19.6723   35.5540 C   0  0  0  0  0  0  0  0  0  0  0  0
   29.0418   18.6379   37.4604 C   0  0  0  0  0  0  0  0  0  0  0  0
   29.0473   19.2948   36.2039 C   0  0  0  0  0  0  0  0  0  0  0  0
   21.0637   21.0766   31.1301 O   0  0  0  0  0  0  0  0  0  0  0  0
   22.9197   21.0120   29.5982 O   0  0  0  0  0  0  0  0  0  0  0  0
   23.3473   28.1527   29.6372 O   0  0  0  0  0  0  0  0  0  0  0  0
   21.3844   28.2076   28.4668 N   0  0  0  0  0  0  0  0  0  0  0  0
   23.3889   21.6002   31.9862 N   0  0  0  0  0  0  0  0  0  0  0  0
   24.3259   19.8736   36.3987 N   0  0  0  0  0  0  0  0  0  0  0  0
   22.3382   21.6571   30.7947 S   0  0  0  0  0  0  0  0  0  0  0  0
  1  2  2  0
  1  3  1  0
  2  4  1  0
  3  6  1  0
  3 42  1  0
  4  5  1  0
  4  7  1  0
  5 38  2  0
  5 39  1  0
  6  7  2  0
  8  9  1  0
  8 18  1  0
  9 19  2  0
 10 11  2  0
 10 13  1  0
 11 14  1  0
 12 13  1  0
 12 15  1  1
 12 40  1  0
 13 16  2  0
 14 17  2  0
 22 15  1  1
 16 17  1  0
 18 21  2  0
 19 24  1  0
 19 41  1  0
 20 23  2  0
 20 25  1  0
 24 21  1  6
 22 25  1  0
 22 26  1  0
 23 27  1  0
 24 30  1  0
 25 28  2  0
 26 31  1  0
 26 41  1  1
 27 29  2  0
 28 29  1  0
 30 31  2  0
 30 32  1  0
 31 33  1  0
 32 34  2  0
 33 35  2  0
 34 35  1  0
 36 42  1  0
 37 42  1  0
 40 42  1  0
M  END
$$$$

     RDKit          3D

 22 24  0  0  0  0  0  0  0  0999 V2000
   21.6308   19.2106   36.6285 C   0  0  0  0  0  0  0  0  0  0  0  0
   21.5130   20.1457   30.6736 C   0  0  0  0  0  0  0  0  0  0  0  0
   22.4392   17.8403   38.5676 C   0  0  0  0  0  0  0  0  0  0  0  0
   22.5858   21.6228   32.1579 C   0  0  0  0  0  0  0  0  0  0  0  0
   22.7342   18.5752   37.4150 C   0  0  2  0  0  0  0  0  0  0  0  0
   23.1374   19.2763   32.1231 C   0  0  0  0  0  0  0  0  0  0  0  0
   23.4554   17.2803   39.3505 C   0  0  0  0  0  0  0  0  0  0  0  0
   23.2738   20.5231   32.7167 C   0  0  1  0  0  0  0  0  0  0  0  0
   23.9354   18.1045   32.5776 C   0  0  0  0  0  0  0  0  0  0  0  0
   24.1054   18.7861   37.0881 C   0  0  0  0  0  0  0  0  0  0  0  0
   24.2909   20.7517   33.8636 C   0  0  0  0  0  0  0  0  0  0  0  0
   24.6064   19.5146   35.9500 C   0  0  0  0  0  0  0  0  0  0  0  0
   24.8465   17.4923   31.5377 C   0  0  0  0  0  0  0  0  0  0  0  0
   24.7745   17.5040   39.0333 C   0  0  0  0  0  0  0  0  0  0  0  0
   25.0968   18.2533   37.8759 C   0  0  0  0  0  0  0  0  0  0  0  0
   26.0248   19.4634   35.8992 C   0  0  0  0  0  0  0  0  0  0  0  0
   23.8056   20.1038   35.0477 O   0  0  0  0  0  0  0  0  0  0  0  0
   20.6291   19.9868   29.6998 N   0  0  0  0  0  0  0  0  0  0  0  0
   21.6468   21.3651   31.1709 N   0  0  0  0  0  0  0  0  0  0  0  0
   22.2560   19.1075   31.1136 N   0  0  0  0  0  0  0  0  0  0  0  0
   22.7644   22.8670   32.6188 N   0  0  0  0  0  0  0  0  0  0  0  0
   26.6274   18.6242   37.2447 S   0  0  0  0  0  0  0  0  0  0  0  0
  5  1  1  1
  2 18  2  0
  2 19  1  0
  2 20  1  0
  3  5  1  0
  3  7  2  0
  4  8  1  0
  4 19  1  0
  4 21  2  0
  5 10  1  0
  6  8  1  0
  6  9  1  0
  6 20  2  0
  7 14  1  0
  8 11  1  6
  9 13  1  0
 10 12  2  0
 10 15  1  0
 11 17  1  0
 12 16  1  0
 12 17  1  0
 14 15  2  0
 15 22  1  0
 16 22  1  0
M  END
$$$$

     RDKit          3D

 36 41  0  0  0  0  0  0  0  0999 V2000
   21.0614   15.9832   41.6712 C   0  0  0  0  0  0  0  0  0  0  0  0
   21.8317   18.3117   28.6254 C   0  0  0  0  0  0  0  0  0  0  0  0
   22.2054   15.8925   39.5224 C   0  0  0  0  0  0  0  0  0  0  0  0
   22.0191   16.4349   40.7773 C   0  0  0  0  0  0  0  0  0  0  0  0
   22.1867   18.3552   29.9906 C   0  0  0  0  0  0  0  0  0  0  0  0
   22.3883   19.2211   27.6772 C   0  0  0  0  0  0  0  0  0  0  0  0
   22.4636   23.0431   32.4626 C   0  0  0  0  0  0  0  0  0  0  0  0
   22.8748   17.4509   41.2234 C   0  0  0  0  0  0  0  0  0  0  0  0
   23.1595   16.3766   38.6743 C   0  0  0  0  0  0  0  0  0  0  0  0
   23.0531   19.3937   30.3741 C   0  0  0  0  0  0  0  0  0  0  0  0
   23.1838   20.7948   32.4410 C   0  0  0  0  0  0  0  0  0  0  0  0
   23.3959   19.5309   31.8038 C   0  0  0  0  0  0  0  0  0  0  0  0
   23.3609   20.1229   28.0986 C   0  0  0  0  0  0  0  0  0  0  0  0
   23.6961   20.2028   29.4336 C   0  0  0  0  0  0  0  0  0  0  0  0
   23.6164   20.9800   33.7559 C   0  0  0  0  0  0  0  0  0  0  0  0
   23.4786   22.2917   34.3661 C   0  0  0  0  0  0  0  0  0  0  0  0
   23.8483   17.9035   40.3850 C   0  0  0  0  0  0  0  0  0  0  0  0
   23.8982   18.4667   32.5591 C   0  0  0  0  0  0  0  0  0  0  0  0
   23.9897   17.4097   39.1160 C   0  0  0  0  0  0  0  0  0  0  0  0
   24.3194   18.6818   33.8577 C   0  0  0  0  0  0  0  0  0  0  0  0
   24.2210   19.9453   34.4570 C   0  0  0  0  0  0  0  0  0  0  0  0
   25.0096   18.0539   38.3128 C   0  0  0  0  0  0  0  0  0  0  0  0
   25.4117   19.4599   36.5431 C   0  0  0  0  0  0  0  0  0  0  0  0
   26.8005   19.2338   36.6510 C   0  0  0  0  0  0  0  0  0  0  0  0
   27.2343   18.4496   37.7644 C   0  0  0  0  0  0  0  0  0  0  0  0
   27.7588   19.7398   35.7276 C   0  0  0  0  0  0  0  0  0  0  0  0
   28.6174   18.2167   38.0011 C   0  0  0  0  0  0  0  0  0  0  0  0
   29.1419   19.5007   35.9696 C   0  0  0  0  0  0  0  0  0  0  0  0
   29.5282   18.7716   37.1258 C   0  0  0  0  0  0  0  0  0  0  0  0
   20.0856   15.4301   41.4668 O   0  0  0  0  0  0  0  0  0  0  0  0
   22.5879   21.8932   31.8150 N   0  0  0  0  0  0  0  0  0  0  0  0
   22.9197   23.2813   33.7111 N   0  0  0  0  0  0  0  0  0  0  0  0
   24.5410   18.8702   37.3498 N   0  0  0  0  0  0  0  0  0  0  0  0
   24.7869   20.2819   35.6723 N   0  0  0  0  0  0  0  0  0  0  0  0
   26.2682   17.8882   38.5451 N   0  0  0  0  0  0  0  0  0  0  0  0
   23.9713   17.2461   32.0249 F   0  0  0  0  0  0  0  0  0  0  0  0
  1  4  1  0
  1 30  2  0
  2  5  2  0
  2  6  1  0
  3  4  1  0
  3  9  2  0
  4  8  1  0
  5 10  1  0
  6 13  2  0
  7 31  2  0
  7 32  1  0
  8 17  2  0
  9 19  1  0
 10 12  1  0
 10 14  2  0
 11 12  1  0
 11 15  2  0
 11 31  1  0
 12 18  1  0
 13 14  1  0
 15 16  1  0
 15 21  1  0
 16 32  2  0
 17 19  1  0
 18 20  2  0
 18 36  1  0
 19 22  1  0
 20 21  1  0
 21 34  2  3
 22 33  1  0
 22 35  2  0
 23 24  1  0
 23 33  2  0
 23 34  1  0
 24 25  1  0
 24 26  2  0
 25 27  2  0
 25 35  1  0
 26 28  1  0
 27 29  1  0
 28 29  2  0
M  END
$$$$

     RDKit          3D

 33 36  0  0  0  0  0  0  0  0999 V2000
   21.3880   19.9479   29.7902 C   0  0  0  0  0  0  0  0  0  0  0  0
   21.6162   18.5855   29.9889 C   0  0  0  0  0  0  0  0  0  0  0  0
   21.8245   22.9532   31.1449 C   0  0  0  0  0  0  0  0  0  0  0  0
   21.8359   24.4334   30.8657 C   0  0  0  0  0  0  0  0  0  0  0  0
   22.0659   16.2276   39.8022 C   0  0  0  0  0  0  0  0  0  0  0  0
   22.3865   20.8545   30.1841 C   0  0  0  0  0  0  0  0  0  0  0  0
   22.5838   16.2303   38.5011 C   0  0  0  0  0  0  0  0  0  0  0  0
   22.6923   16.9874   40.8005 C   0  0  0  0  0  0  0  0  0  0  0  0
   22.8014   18.1568   30.6031 C   0  0  0  0  0  0  0  0  0  0  0  0
   22.7289   21.6105   36.1347 C   0  0  0  0  0  0  0  0  0  0  0  0
   22.7625   22.8303   35.4494 C   0  0  0  0  0  0  0  0  0  0  0  0
   23.5028   19.3522   36.5136 C   0  0  0  0  0  0  0  0  0  0  0  0
   23.5493   20.4165   30.7704 C   0  0  0  0  0  0  0  0  0  0  0  0
   23.5439   20.5065   35.7150 C   0  0  0  0  0  0  0  0  0  0  0  0
   23.6707   22.8336   34.2496 C   0  0  0  0  0  0  0  0  0  0  0  0
   23.7559   16.9789   38.2113 C   0  0  0  0  0  0  0  0  0  0  0  0
   23.8268   17.6968   40.5212 C   0  0  0  0  0  0  0  0  0  0  0  0
   23.7584   19.0783   31.0006 C   0  0  0  0  0  0  0  0  0  0  0  0
   24.3537   17.6901   39.2376 C   0  0  0  0  0  0  0  0  0  0  0  0
   24.2405   18.2338   36.1374 C   0  0  0  0  0  0  0  0  0  0  0  0
   24.3102   20.5280   34.5774 C   0  0  0  0  0  0  0  0  0  0  0  0
   24.9716   18.2418   34.9661 C   0  0  0  0  0  0  0  0  0  0  0  0
   24.9796   18.5639   31.6909 C   0  0  0  0  0  0  0  0  0  0  0  0
   25.0118   19.3614   34.1461 C   0  0  0  0  0  0  0  0  0  0  0  0
   25.7297   19.3632   32.8130 C   0  0  1  0  0  0  0  0  0  0  0  0
   27.1007   18.7043   32.8944 C   0  0  0  0  0  0  0  0  0  0  0  0
   20.2788   20.4484   29.2508 O   0  0  0  0  0  0  0  0  0  0  0  0
   21.8941   21.4942   37.0418 O   0  0  0  0  0  0  0  0  0  0  0  0
   22.2006   22.2065   30.0301 O   0  0  0  0  0  0  0  0  0  0  0  0
   23.7913   23.8901   33.6124 O   0  0  0  0  0  0  0  0  0  0  0  0
   24.2166   17.0867   36.8840 O   0  0  0  0  0  0  0  0  0  0  0  0
   27.6377   18.4065   31.7324 O   0  0  0  0  0  0  0  0  0  0  0  0
   24.3008   21.7010   33.8512 N   0  0  0  0  0  0  0  0  0  0  0  0
  1  2  2  0
  1  6  1  0
  1 27  1  0
  2  9  1  0
  3  4  1  0
  3 29  1  0
  5  7  2  0
  5  8  1  0
  6 13  2  0
  6 29  1  0
  7 16  1  0
  8 17  2  0
  9 18  2  0
 10 11  1  0
 10 14  1  0
 10 28  2  0
 11 15  1  0
 12 14  2  0
 12 20  1  0
 13 18  1  0
 14 21  1  0
 15 30  2  0
 15 33  1  0
 16 19  2  0
 16 31  1  0
 17 19  1  0
 18 23  1  0
 20 22  2  0
 20 31  1  0
 21 24  1  0
 21 33  2  0
 22 24  1  0
 25 23  1  6
 24 25  1  0
 25 26  1  0
 26 32  1  0
M  END
$$$$

     RDKit          3D

 25 28  0  0  0  0  0  0  0  0999 V2000
   21.9698   19.4238   36.7480 C   0  0  0  0  0  0  0  0  0  0  0  0
   22.1743   23.0849   30.8891 C   0  0  0  0  0  0  0  0  0  0  0  0
   22.3063   22.0264   29.9489 C   0  0  0  0  0  0  0  0  0  0  0  0
   22.5290   20.7740   30.4317 C   0  0  0  0  0  0  0  0  0  0  0  0
   22.6299   22.8967   32.1869 C   0  0  0  0  0  0  0  0  0  0  0  0
   22.9230   19.1401   32.2108 C   0  0  0  0  0  0  0  0  0  0  0  0
   22.7787   20.4473   31.7419 C   0  0  0  0  0  0  0  0  0  0  0  0
   22.8418   21.5582   32.6457 C   0  0  0  0  0  0  0  0  0  0  0  0
   23.0766   18.9513   33.5739 C   0  0  0  0  0  0  0  0  0  0  0  0
   22.9884   19.6535   35.9169 C   0  0  2  0  0  0  0  0  0  0  0  0
   23.0677   19.9818   34.4649 C   0  0  0  0  0  0  0  0  0  0  0  0
   23.0023   21.2675   34.0139 C   0  0  0  0  0  0  0  0  0  0  0  0
   23.5936   18.4679   37.7587 C   0  0  0  0  0  0  0  0  0  0  0  0
   24.1478   16.1296   38.3648 C   0  0  0  0  0  0  0  0  0  0  0  0
   24.0396   19.0962   36.6174 C   0  0  0  0  0  0  0  0  0  0  0  0
   24.3140   17.9382   40.1023 C   0  0  0  0  0  0  0  0  0  0  0  0
   24.5140   17.6256   38.6102 C   0  0  0  0  0  0  0  0  0  0  0  0
   25.3707   19.2959   36.1922 C   0  0  0  0  0  0  0  0  0  0  0  0
   25.9871   17.8177   38.2304 C   0  0  0  0  0  0  0  0  0  0  0  0
   26.3328   18.6827   37.0962 C   0  0  0  0  0  0  0  0  0  0  0  0
   27.6603   19.0657   36.7832 C   0  0  0  0  0  0  0  0  0  0  0  0
   28.7685   18.7107   37.6121 C   0  0  0  0  0  0  0  0  0  0  0  0
   30.1252   18.8570   37.0028 C   0  0  0  0  0  0  0  0  0  0  0  0
   27.8477   19.8009   35.7084 O   0  0  0  0  0  0  0  0  0  0  0  0
   22.2687   18.7161   37.8673 N   0  0  0  0  0  0  0  0  0  0  0  0
  1 10  1  0
  1 25  1  0
  2  3  1  0
  2  5  1  0
  3  4  2  0
  4  7  1  0
  5  8  1  0
  6  7  1  0
  6  9  2  0
  7  8  2  0
  8 12  1  0
  9 11  1  0
 10 11  1  6
 10 15  1  0
 11 12  2  0
 13 15  2  0
 13 17  1  0
 13 25  1  0
 14 17  1  0
 15 18  1  0
 16 17  1  0
 17 19  1  0
 18 20  1  0
 19 20  1  0
 20 21  2  3
 21 22  1  0
 21 24  1  0
 22 23  1  0
M  END
$$$$

     RDKit          3D

 29 32  0  0  0  0  0  0  0  0999 V2000
   21.7545   19.2135   29.5602 C   0  0  0  0  0  0  0  0  0  0  0  0
   22.3013   19.4380   30.8281 C   0  0  0  0  0  0  0  0  0  0  0  0
   22.5674   19.3655   28.4140 C   0  0  0  0  0  0  0  0  0  0  0  0
   22.4671   22.1747   36.3171 C   0  0  0  0  0  0  0  0  0  0  0  0
   22.8262   20.9182   35.8363 C   0  0  0  0  0  0  0  0  0  0  0  0
   23.3937   23.2166   36.2716 C   0  0  0  0  0  0  0  0  0  0  0  0
   23.6491   19.7317   30.9586 C   0  0  0  0  0  0  0  0  0  0  0  0
   23.9404   19.5936   28.5753 C   0  0  0  0  0  0  0  0  0  0  0  0
   24.1768   19.0521   33.3228 C   0  0  1  0  0  0  0  0  0  0  0  0
   24.0820   20.7126   35.2493 C   0  0  0  0  0  0  0  0  0  0  0  0
   24.3746   17.6487   32.9256 C   0  0  0  0  0  0  0  0  0  0  0  0
   24.4291   19.3960   34.6569 C   0  0  1  0  0  0  0  0  0  0  0  0
   24.4620   19.8072   29.8437 C   0  0  0  0  0  0  0  0  0  0  0  0
   24.2148   20.0419   32.3005 C   0  0  0  0  0  0  0  0  0  0  0  0
   24.6554   22.9994   35.7432 C   0  0  0  0  0  0  0  0  0  0  0  0
   24.8269   16.6367   33.8509 C   0  0  0  0  0  0  0  0  0  0  0  0
   24.9233   18.3876   35.4981 C   0  0  2  0  0  0  0  0  0  0  0  0
   25.0041   21.7579   35.2605 C   0  0  0  0  0  0  0  0  0  0  0  0
   25.3924   18.6770   36.8496 C   0  0  0  0  0  0  0  0  0  0  0  0
   25.5155   17.1942   34.8218 C   0  0  0  0  0  0  0  0  0  0  0  0
   26.8604   18.8544   36.8932 C   0  0  0  0  0  0  0  0  0  0  0  0
   27.4560   18.6660   38.1469 C   0  0  0  0  0  0  0  0  0  0  0  0
   27.6512   19.1753   35.7850 C   0  0  0  0  0  0  0  0  0  0  0  0
   28.8332   18.6864   38.2557 C   0  0  0  0  0  0  0  0  0  0  0  0
   29.0365   19.2466   35.8938 C   0  0  0  0  0  0  0  0  0  0  0  0
   29.6032   18.9591   37.1373 C   0  0  0  0  0  0  0  0  0  0  0  0
   22.0024   19.2286   27.1515 O   0  0  0  0  0  0  0  0  0  0  0  0
   23.0493   24.4416   36.7140 O   0  0  0  0  0  0  0  0  0  0  0  0
   30.9575   19.0130   37.2559 O   0  0  0  0  0  0  0  0  0  0  0  0
  1  2  2  0
  1  3  1  0
  2  7  1  0
  3  8  2  0
  3 27  1  0
  4  5  2  0
  4  6  1  0
  5 10  1  0
  6 15  2  0
  6 28  1  0
  7 13  2  0
  7 14  1  0
  8 13  1  0
  9 11  1  0
  9 12  1  0
  9 14  1  6
 12 10  1  1
 10 18  2  0
 11 16  1  0
 12 17  1  0
 15 18  1  0
 16 20  1  0
 17 19  1  1
 17 20  1  0
 19 21  1  0
 21 22  2  0
 21 23  1  0
 22 24  1  0
 23 25  2  0
 24 26  2  0
 25 26  1  0
 26 29  1  0
M  END
$$$$

     RDKit          3D

 26 29  0  0  0  0  0  0  0  0999 V2000
   21.8377   20.6179   30.2547 C   0  0  0  0  0  0  0  0  0  0  0  0
   22.0740   24.0516   33.9623 C   0  0  0  0  0  0  0  0  0  0  0  0
   22.0973   24.6822   35.2209 C   0  0  0  0  0  0  0  0  0  0  0  0
   22.6613   22.7808   33.7905 C   0  0  0  0  0  0  0  0  0  0  0  0
   22.6550   24.0076   36.3421 C   0  0  0  0  0  0  0  0  0  0  0  0
   23.2061   21.0058   32.3091 C   0  0  0  0  0  0  0  0  0  0  0  0
   23.1725   22.0635   34.9113 C   0  0  0  0  0  0  0  0  0  0  0  0
   23.1730   22.7111   36.2079 C   0  0  0  0  0  0  0  0  0  0  0  0
   23.4164   19.2067   36.5697 C   0  0  0  0  0  0  0  0  0  0  0  0
   23.9485   18.4200   37.5669 C   0  0  0  0  0  0  0  0  0  0  0  0
   23.7599   20.2613   33.3764 C   0  0  0  0  0  0  0  0  0  0  0  0
   23.7191   20.7836   34.6558 C   0  0  0  0  0  0  0  0  0  0  0  0
   24.1930   20.7414   30.0275 C   0  0  0  0  0  0  0  0  0  0  0  0
   24.2309   19.9774   35.7566 C   0  0  0  0  0  0  0  0  0  0  0  0
   25.1986   18.5618   30.7399 C   0  0  0  0  0  0  0  0  0  0  0  0
   25.3334   18.4208   37.7898 C   0  0  0  0  0  0  0  0  0  0  0  0
   25.3543   19.8876   30.2503 C   0  0  0  0  0  0  0  0  0  0  0  0
   25.6098   19.9519   35.9842 C   0  0  0  0  0  0  0  0  0  0  0  0
   26.1765   19.1825   37.0011 C   0  0  0  0  0  0  0  0  0  0  0  0
   26.3494   17.7224   30.8278 C   0  0  0  0  0  0  0  0  0  0  0  0
   26.5802   20.3994   29.9291 C   0  0  0  0  0  0  0  0  0  0  0  0
   27.5772   18.2593   30.4092 C   0  0  0  0  0  0  0  0  0  0  0  0
   27.6878   19.5717   29.9270 C   0  0  0  0  0  0  0  0  0  0  0  0
   22.6647   22.2362   32.5464 N   0  0  0  0  0  0  0  0  0  0  0  0
   23.1136   20.6236   30.9609 N   0  0  0  0  0  0  0  0  0  0  0  0
   21.7066   19.0319   36.3548 Cl  0  0  0  0  0  0  0  0  0  0  0  0
  1 25  1  0
  2  3  2  0
  2  4  1  0
  3  5  1  0
  4  7  2  0
  4 24  1  0
  5  8  2  0
  6 11  1  0
  6 24  2  0
  6 25  1  0
  7  8  1  0
  7 12  1  0
  9 10  2  0
  9 14  1  0
  9 26  1  0
 10 16  1  0
 11 12  2  0
 12 14  1  0
 13 17  1  0
 13 25  1  0
 14 18  2  0
 15 17  2  0
 15 20  1  0
 16 19  2  0
 17 21  1  0
 18 19  1  0
 20 22  2  0
 21 23  2  0
 22 23  1  0
M  END
$$$$

     RDKit          3D

 42 47  0  0  0  0  0  0  0  0999 V2000
   19.9747   16.6703   42.4423 C   0  0  0  0  0  0  0  0  0  0  0  0
   21.3861   25.9022   33.2899 C   0  0  0  0  0  0  0  0  0  0  0  0
   21.4746   16.9114   42.4418 C   0  0  0  0  0  0  0  0  0  0  0  0
   21.7772   24.7748   32.5514 C   0  0  0  0  0  0  0  0  0  0  0  0
   21.7648   26.0629   34.6184 C   0  0  0  0  0  0  0  0  0  0  0  0
   22.1816   21.8381   31.4548 C   0  0  0  0  0  0  0  0  0  0  0  0
   22.2337   16.7096   41.1073 C   0  0  0  0  0  0  0  0  0  0  0  0
   22.6471   19.7063   33.5889 C   0  0  0  0  0  0  0  0  0  0  0  0
   22.5512   20.3857   31.2250 C   0  0  0  0  0  0  0  0  0  0  0  0
   22.6088   23.7616   33.1166 C   0  0  0  0  0  0  0  0  0  0  0  0
   22.6174   25.0984   35.2231 C   0  0  0  0  0  0  0  0  0  0  0  0
   22.8010   18.4653   38.2447 C   0  0  0  0  0  0  0  0  0  0  0  0
   23.0664   23.9407   34.4813 C   0  0  0  0  0  0  0  0  0  0  0  0
   22.9843   25.2841   36.5872 C   0  0  0  0  0  0  0  0  0  0  0  0
   23.3660   18.4116   36.9498 C   0  0  0  0  0  0  0  0  0  0  0  0
   23.2441   19.0025   34.6542 C   0  0  0  0  0  0  0  0  0  0  0  0
   23.4907   17.8168   39.3138 C   0  0  1  0  0  0  0  0  0  0  0  0
   23.9263   24.4272   37.1674 C   0  0  0  0  0  0  0  0  0  0  0  0
   24.1091   18.6024   32.1119 C   0  0  0  0  0  0  0  0  0  0  0  0
   23.9829   23.0324   35.1011 C   0  0  0  0  0  0  0  0  0  0  0  0
   24.3975   18.1552   34.4024 C   0  0  0  0  0  0  0  0  0  0  0  0
   24.4463   23.3323   36.4220 C   0  0  0  0  0  0  0  0  0  0  0  0
   24.6250   17.6886   36.7331 C   0  0  0  0  0  0  0  0  0  0  0  0
   24.4825   18.1314   30.7713 C   0  0  0  0  0  0  0  0  0  0  0  0
   24.8335   17.3285   39.1909 C   0  0  0  0  0  0  0  0  0  0  0  0
   25.3795   17.1547   37.8672 C   0  0  0  0  0  0  0  0  0  0  0  0
   25.9723   18.4265   30.6442 C   0  0  2  0  0  0  0  0  0  0  0  0
   26.3950   19.8010   30.6617 C   0  0  0  0  0  0  0  0  0  0  0  0
   26.8690   17.4407   30.1308 C   0  0  0  0  0  0  0  0  0  0  0  0
   27.5631   20.1652   29.9705 C   0  0  0  0  0  0  0  0  0  0  0  0
   28.0435   17.8241   29.4484 C   0  0  0  0  0  0  0  0  0  0  0  0
   28.3576   19.1973   29.3562 C   0  0  0  0  0  0  0  0  0  0  0  0
   29.5516   19.2534   27.2398 C   0  0  0  0  0  0  0  0  0  0  0  0
   30.7529   19.6008   29.3964 C   0  0  0  0  0  0  0  0  0  0  0  0
   22.3686   15.5998   40.6482 O   0  0  0  0  0  0  0  0  0  0  0  0
   22.7634   17.8297   40.5370 N   0  0  0  0  0  0  0  0  0  0  0  0
   22.7410   19.0545   35.9172 N   0  0  0  0  0  0  0  0  0  0  0  0
   23.1437   19.5544   32.3240 N   0  0  0  0  0  0  0  0  0  0  0  0
   22.9945   22.6423   32.3444 N   0  0  0  0  0  0  0  0  0  0  0  0
   24.8030   17.9710   33.1133 N   0  0  0  0  0  0  0  0  0  0  0  0
   25.0892   17.5800   35.4477 N   0  0  0  0  0  0  0  0  0  0  0  0
   29.5017   19.5552   28.6230 N   0  0  0  0  0  0  0  0  0  0  0  0
  1  3  1  0
  2  4  2  0
  2  5  1  0
  3  7  1  0
  4 10  1  0
  5 11  2  0
  6  9  1  0
  6 39  1  0
  7 35  2  0
  7 36  1  0
  8 16  1  0
  8 38  1  0
  9 38  1  0
 10 13  2  0
 10 39  1  0
 11 13  1  0
 11 14  1  0
 12 15  2  0
 12 17  1  0
 13 20  1  0
 14 18  2  0
 15 23  1  0
 15 37  1  0
 16 21  1  0
 16 37  2  0
 17 25  1  0
 17 36  1  1
 18 22  1  0
 19 24  1  0
 19 38  1  0
 19 40  1  0
 20 22  2  0
 21 40  2  0
 21 41  1  0
 23 26  1  0
 23 41  2  0
 27 24  1  6
 25 26  2  0
 27 28  1  0
 27 29  1  0
 28 30  1  0
 29 31  2  0
 30 32  2  0
 31 32  1  0
 32 42  1  0
 33 42  1  0
 34 42  1  0
M  END
$$$$

     RDKit          3D

 28 31  0  0  0  0  0  0  0  0999 V2000
   21.9885   19.7406   30.6178 C   0  0  0  0  0  0  0  0  0  0  0  0
   22.5250   17.5181   39.4040 C   0  0  0  0  0  0  0  0  0  0  0  0
   22.4892   19.2210   31.8127 C   0  0  0  0  0  0  0  0  0  0  0  0
   22.5916   21.6219   36.3334 C   0  0  0  0  0  0  0  0  0  0  0  0
   22.7671   16.2109   39.7650 C   0  0  0  0  0  0  0  0  0  0  0  0
   22.9325   20.0131   29.5540 C   0  0  0  0  0  0  0  0  0  0  0  0
   22.9071   20.3985   35.7472 C   0  0  0  0  0  0  0  0  0  0  0  0
   23.3626   18.1834   38.5102 C   0  0  0  0  0  0  0  0  0  0  0  0
   23.4890   22.6566   36.1948 C   0  0  0  0  0  0  0  0  0  0  0  0
   23.8885   15.5821   39.2058 C   0  0  0  0  0  0  0  0  0  0  0  0
   23.8749   19.0645   32.0779 C   0  0  0  0  0  0  0  0  0  0  0  0
   24.1117   20.1997   35.0603 C   0  0  0  0  0  0  0  0  0  0  0  0
   24.4572   17.5309   37.9486 C   0  0  0  0  0  0  0  0  0  0  0  0
   24.3698   18.4077   33.2589 C   0  0  0  0  0  0  0  0  0  0  0  0
   24.2680   19.9621   29.8705 C   0  0  0  0  0  0  0  0  0  0  0  0
   24.7067   16.2225   38.3510 C   0  0  0  0  0  0  0  0  0  0  0  0
   24.6498   17.0690   33.1154 C   0  0  0  0  0  0  0  0  0  0  0  0
   24.4711   18.8587   34.5902 C   0  0  0  0  0  0  0  0  0  0  0  0
   24.7086   19.4746   31.0810 C   0  0  0  0  0  0  0  0  0  0  0  0
   24.6185   22.5543   35.3974 C   0  0  0  0  0  0  0  0  0  0  0  0
   24.9464   21.2937   34.8407 C   0  0  0  0  0  0  0  0  0  0  0  0
   25.0692   16.4025   33.6049 C   0  0  0  0  0  0  0  0  0  0  0  0
   25.0108   17.9325   35.5313 C   0  0  0  0  0  0  0  0  0  0  0  0
   25.4237   16.6782   34.9473 C   0  0  0  0  0  0  0  0  0  0  0  0
   25.3513   18.1836   36.9563 C   0  0  0  0  0  0  0  0  0  0  0  0
   21.9405   15.5184   40.6029 O   0  0  0  0  0  0  0  0  0  0  0  0
   22.5926   20.5415   28.3631 O   0  0  0  0  0  0  0  0  0  0  0  0
   23.2102   23.7935   36.8758 O   0  0  0  0  0  0  0  0  0  0  0  0
  1  3  2  0
  1  6  1  0
  2  5  2  0
  2  8  1  0
  3 11  1  0
  4  7  2  0
  4  9  1  0
  5 10  1  0
  5 26  1  0
  6 15  2  0
  6 27  1  0
  7 12  1  0
  8 13  2  0
  9 20  2  0
  9 28  1  0
 10 16  2  0
 11 14  1  0
 11 19  2  0
 12 18  1  0
 12 21  2  0
 13 16  1  0
 13 25  1  0
 14 17  2  0
 14 18  1  0
 15 19  1  0
 17 22  1  0
 18 23  2  0
 20 21  1  0
 22 24  2  0
 23 24  1  0
 23 25  1  0
M  END
$$$$

     RDKit          3D

 45 50  0  0  0  0  0  0  0  0999 V2000
   21.3967   24.0805   31.2708 C   0  0  0  0  0  0  0  0  0  0  0  0
   21.2159   25.4053   30.9308 C   0  0  0  0  0  0  0  0  0  0  0  0
   21.5807   27.3570   29.3836 C   0  0  0  0  0  0  0  0  0  0  0  0
   21.8460   25.9323   29.7799 C   0  0  0  0  0  0  0  0  0  0  0  0
   22.1762   23.2381   30.4954 C   0  0  0  0  0  0  0  0  0  0  0  0
   22.0823   24.0389   36.4495 C   0  0  0  0  0  0  0  0  0  0  0  0
   22.3181   22.8138   35.8005 C   0  0  0  0  0  0  0  0  0  0  0  0
   22.5288   17.5903   38.5307 C   0  0  0  0  0  0  0  0  0  0  0  0
   22.6842   25.1145   29.0090 C   0  0  0  0  0  0  0  0  0  0  0  0
   22.4638   25.2289   35.8857 C   0  0  0  0  0  0  0  0  0  0  0  0
   22.7813   18.7275   37.7831 C   0  0  0  0  0  0  0  0  0  0  0  0
   22.9340   22.8150   34.5113 C   0  0  0  0  0  0  0  0  0  0  0  0
   22.8508   23.7648   29.3727 C   0  0  0  0  0  0  0  0  0  0  0  0
   22.9809   21.5598   33.7079 C   0  0  2  0  0  0  0  0  0  0  0  0
   23.0235   25.2468   34.6087 C   0  0  0  0  0  0  0  0  0  0  0  0
   23.2719   24.0589   33.9370 C   0  0  0  0  0  0  0  0  0  0  0  0
   23.5924   16.7091   38.8405 C   0  0  0  0  0  0  0  0  0  0  0  0
   23.4715   20.3134   34.3521 C   0  0  0  0  0  0  0  0  0  0  0  0
   24.0741   19.0135   37.3440 C   0  0  0  0  0  0  0  0  0  0  0  0
   24.3306   20.2726   36.6195 C   0  0  0  0  0  0  0  0  0  0  0  0
   24.6847   20.2086   35.2308 C   0  0  1  0  0  0  0  0  0  0  0  0
   24.8780   17.0009   38.3965 C   0  0  0  0  0  0  0  0  0  0  0  0
   25.1387   18.1641   37.6145 C   0  0  0  0  0  0  0  0  0  0  0  0
   25.5006   16.5132   32.8860 C   0  0  0  0  0  0  0  0  0  0  0  0
   25.5623   17.3865   33.9854 C   0  0  0  0  0  0  0  0  0  0  0  0
   26.0362   16.9055   31.6165 C   0  0  0  0  0  0  0  0  0  0  0  0
   26.0313   18.6995   33.7687 C   0  0  0  0  0  0  0  0  0  0  0  0
   26.5777   18.2006   31.4586 C   0  0  0  0  0  0  0  0  0  0  0  0
   26.5029   18.5799   37.2423 C   0  0  0  0  0  0  0  0  0  0  0  0
   26.5878   19.1119   32.5181 C   0  0  0  0  0  0  0  0  0  0  0  0
   26.7959   19.1864   36.0045 C   0  0  0  0  0  0  0  0  0  0  0  0
   27.4811   18.4175   38.1939 C   0  0  0  0  0  0  0  0  0  0  0  0
   28.2134   19.4369   35.6992 C   0  0  0  0  0  0  0  0  0  0  0  0
   28.7672   18.7573   37.9581 C   0  0  0  0  0  0  0  0  0  0  0  0
   29.2038   19.1855   36.7381 C   0  0  0  0  0  0  0  0  0  0  0  0
   30.7601   19.3596   36.2723 C   0  0  0  0  0  0  0  0  0  0  0  0
   21.2479   20.9085   31.4760 O   0  0  0  0  0  0  0  0  0  0  0  0
   23.2175   20.8713   30.0337 O   0  0  0  0  0  0  0  0  0  0  0  0
   31.2811   19.2672   37.4631 O   0  0  0  0  0  0  0  0  0  0  0  0
   20.7661   28.3764   30.2048 N   0  0  0  0  0  0  0  0  0  0  0  0
   21.5192   27.6887   28.0450 N   0  0  0  0  0  0  0  0  0  0  0  0
   23.4888   21.7705   32.3790 N   0  0  0  0  0  0  0  0  0  0  0  0
   25.9328   19.5411   34.9149 N   0  0  0  0  0  0  0  0  0  0  0  0
   22.4627   21.5668   31.1018 S   0  0  0  0  0  0  0  0  0  0  0  0
   23.2944   15.6230   39.5756 F   0  0  0  0  0  0  0  0  0  0  0  0
  1  2  2  0
  1  5  1  0
  2  4  1  0
  3  4  1  0
  3 40  2  0
  3 41  1  0
  4  9  2  0
  5 13  2  0
  5 44  1  0
  6  7  2  0
  6 10  1  0
  7 12  1  0
  8 11  2  0
  8 17  1  0
  9 13  1  0
 10 15  2  0
 11 19  1  0
 12 14  1  0
 12 16  2  0
 14 18  1  1
 14 42  1  0
 15 16  1  0
 17 22  2  0
 17 45  1  0
 21 18  1  6
 19 20  1  0
 19 23  2  0
 20 21  1  0
 21 43  1  0
 22 23  1  0
 23 29  1  0
 24 25  2  0
 24 26  1  0
 25 27  1  0
 26 28  1  0
 27 30  1  0
 27 43  1  0
 28 30  2  0
 29 31  2  0
 29 32  1  0
 31 33  1  0
 31 43  1  0
 32 34  2  0
 33 35  2  0
 34 35  1  0
 35 36  1  0
 36 39  1  0
 37 44  1  0
 38 44  1  0
 42 44  1  0
M  END
$$$$

     RDKit          3D

 26 29  0  0  0  0  0  0  0  0999 V2000
   21.9580   20.6622   30.6574 C   0  0  0  0  0  0  0  0  0  0  0  0
   21.8132   23.2052   30.5789 C   0  0  0  0  0  0  0  0  0  0  0  0
   22.2073   24.1712   31.5697 C   0  0  0  0  0  0  0  0  0  0  0  0
   22.2684   17.8552   38.4141 C   0  0  0  0  0  0  0  0  0  0  0  0
   22.6939   18.8009   37.5177 C   0  0  0  0  0  0  0  0  0  0  0  0
   22.6931   22.2036   32.3439 C   0  0  0  0  0  0  0  0  0  0  0  0
   23.2069   17.0277   39.0789 C   0  0  0  0  0  0  0  0  0  0  0  0
   23.0080   19.8393   32.6422 C   0  0  0  0  0  0  0  0  0  0  0  0
   23.1461   21.1460   33.1558 C   0  0  0  0  0  0  0  0  0  0  0  0
   23.5259   18.6330   33.3454 C   0  0  0  0  0  0  0  0  0  0  0  0
   23.7649   21.4615   34.4596 C   0  0  0  0  0  0  0  0  0  0  0  0
   24.1063   18.9457   37.1548 C   0  0  0  0  0  0  0  0  0  0  0  0
   24.5837   17.1704   38.7989 C   0  0  0  0  0  0  0  0  0  0  0  0
   24.5401   19.8665   36.1449 C   0  0  0  0  0  0  0  0  0  0  0  0
   25.0187   18.1111   37.8323 C   0  0  0  0  0  0  0  0  0  0  0  0
   25.9240   19.9131   35.7857 C   0  0  0  0  0  0  0  0  0  0  0  0
   26.4210   18.2380   37.5201 C   0  0  0  0  0  0  0  0  0  0  0  0
   26.8634   19.1347   36.4885 C   0  0  0  0  0  0  0  0  0  0  0  0
   28.2621   19.1451   36.1930 C   0  0  0  0  0  0  0  0  0  0  0  0
   29.3869   19.0729   36.1128 C   0  0  0  0  0  0  0  0  0  0  0  0
   21.4107   20.4139   29.5347 O   0  0  0  0  0  0  0  0  0  0  0  0
   26.3448   20.6518   34.7302 O   0  0  0  0  0  0  0  0  0  0  0  0
   22.1232   21.9407   31.1252 N   0  0  0  0  0  0  0  0  0  0  0  0
   22.3742   19.6426   31.4531 N   0  0  0  0  0  0  0  0  0  0  0  0
   22.6814   23.5239   32.6500 N   0  0  0  0  0  0  0  0  0  0  0  0
   23.5441   20.6348   35.5191 N   0  0  0  0  0  0  0  0  0  0  0  0
  1 21  2  0
  1 23  1  0
  1 24  1  0
  2  3  1  0
  2 23  1  0
  3 25  1  0
  4  5  2  0
  4  7  1  0
  5 12  1  0
  6  9  2  0
  6 23  1  0
  6 25  1  0
  7 13  2  0
  8  9  1  0
  8 10  1  0
  8 24  2  0
  9 11  1  0
 11 26  1  0
 12 14  1  0
 12 15  2  0
 13 15  1  0
 14 16  1  0
 14 26  2  3
 15 17  1  0
 16 18  2  0
 16 22  1  0
 17 18  1  0
 18 19  1  0
 19 20  3  0
M  END
$$$$

     RDKit          3D

 20 22  0  0  0  0  0  0  0  0999 V2000
   21.4749   24.1345   31.9380 C   0  0  0  0  0  0  0  0  0  0  0  0
   21.7382   21.8951   31.0065 C   0  0  0  0  0  0  0  0  0  0  0  0
   22.0320   22.8484   31.9899 C   0  0  0  0  0  0  0  0  0  0  0  0
   22.5475   19.3754   36.5540 C   0  0  0  0  0  0  0  0  0  0  0  0
   22.4711   20.0581   35.3471 C   0  0  0  0  0  0  0  0  0  0  0  0
   22.7149   24.7518   33.7683 C   0  0  0  0  0  0  0  0  0  0  0  0
   22.9877   17.8084   38.9352 C   0  0  0  0  0  0  0  0  0  0  0  0
   23.3015   23.4909   33.8629 C   0  0  0  0  0  0  0  0  0  0  0  0
   23.5883   20.3949   34.5747 C   0  0  0  0  0  0  0  0  0  0  0  0
   23.4614   21.1076   33.2265 C   0  0  2  0  0  0  0  0  0  0  0  0
   23.8173   18.9437   37.0165 C   0  0  0  0  0  0  0  0  0  0  0  0
   24.9421   19.2112   36.2561 C   0  0  0  0  0  0  0  0  0  0  0  0
   24.8370   19.9287   35.0736 C   0  0  0  0  0  0  0  0  0  0  0  0
   24.8509   21.1819   32.6819 C   0  0  0  0  0  0  0  0  0  0  0  0
   26.1930   20.2273   34.6275 C   0  0  1  0  0  0  0  0  0  0  0  0
   27.0999   19.3215   35.1939 C   0  0  0  0  0  0  0  0  0  0  0  0
   24.0354   18.3088   38.2046 O   0  0  0  0  0  0  0  0  0  0  0  0
   21.8274   25.0519   32.8108 N   0  0  0  0  0  0  0  0  0  0  0  0
   22.9356   22.5147   33.0394 N   0  0  0  0  0  0  0  0  0  0  0  0
   25.9855   20.1997   33.7532 S   0  0  0  0  0  0  0  0  0  0  0  0
  1  3  1  0
  1 18  2  0
  2  3  1  0
  3 19  1  0
  4  5  2  0
  4 11  1  0
  5  9  1  0
  6  8  2  0
  6 18  1  0
  7 17  1  0
  8 19  1  0
  9 10  1  0
  9 13  2  0
 10 14  1  0
 10 19  1  1
 11 12  2  0
 11 17  1  0
 12 13  1  0
 13 15  1  0
 14 20  1  0
 15 16  1  6
 15 20  1  0
M  END
$$$$

     RDKit          3D

 36 41  0  0  0  0  0  0  0  0999 V2000
   21.0612   16.3523   42.2656 C   0  0  0  0  0  0  0  0  0  0  0  0
   21.0589   18.4400   29.8755 C   0  0  0  0  0  0  0  0  0  0  0  0
   21.4826   19.6969   30.5531 C   0  0  2  0  0  0  0  0  0  0  0  0
   21.6254   20.9224   29.8412 C   0  0  0  0  0  0  0  0  0  0  0  0
   22.1486   15.9049   39.8923 C   0  0  0  0  0  0  0  0  0  0  0  0
   22.1228   16.5868   41.1523 C   0  0  0  0  0  0  0  0  0  0  0  0
   22.3154   22.1123   31.8577 C   0  0  0  0  0  0  0  0  0  0  0  0
   22.2097   24.7117   32.1059 C   0  0  0  0  0  0  0  0  0  0  0  0
   22.5999   20.8625   32.4422 C   0  0  0  0  0  0  0  0  0  0  0  0
   22.6108   23.2930   32.5611 C   0  0  1  0  0  0  0  0  0  0  0  0
   23.0954   16.2895   38.9141 C   0  0  0  0  0  0  0  0  0  0  0  0
   23.1093   17.5170   41.4334 C   0  0  0  0  0  0  0  0  0  0  0  0
   23.2750   20.8625   33.6968 C   0  0  0  0  0  0  0  0  0  0  0  0
   23.2156   23.2470   33.8558 C   0  0  0  0  0  0  0  0  0  0  0  0
   23.6161   22.0546   34.3880 C   0  0  0  0  0  0  0  0  0  0  0  0
   23.7366   19.7488   34.4425 C   0  0  0  0  0  0  0  0  0  0  0  0
   24.0148   17.3419   39.2209 C   0  0  0  0  0  0  0  0  0  0  0  0
   24.0070   17.8828   40.4959 C   0  0  0  0  0  0  0  0  0  0  0  0
   24.3623   21.6986   35.5892 C   0  0  0  0  0  0  0  0  0  0  0  0
   24.4598   20.2742   35.5602 C   0  0  0  0  0  0  0  0  0  0  0  0
   24.9396   17.9892   38.3087 C   0  0  0  0  0  0  0  0  0  0  0  0
   25.2004   19.4213   36.4483 C   0  0  0  0  0  0  0  0  0  0  0  0
   26.6274   19.2305   36.5346 C   0  0  0  0  0  0  0  0  0  0  0  0
   27.1523   18.5567   37.6704 C   0  0  0  0  0  0  0  0  0  0  0  0
   27.5569   19.6983   35.5693 C   0  0  0  0  0  0  0  0  0  0  0  0
   28.5213   18.4993   37.9294 C   0  0  0  0  0  0  0  0  0  0  0  0
   28.9536   19.5925   35.8187 C   0  0  0  0  0  0  0  0  0  0  0  0
   29.4100   19.0550   37.0102 C   0  0  0  0  0  0  0  0  0  0  0  0
   20.2260   15.3894   41.7497 O   0  0  0  0  0  0  0  0  0  0  0  0
   21.5948   20.9272   28.6055 O   0  0  0  0  0  0  0  0  0  0  0  0
   22.4827   25.6807   32.8353 O   0  0  0  0  0  0  0  0  0  0  0  0
   21.8389   22.0597   30.5476 N   0  0  0  0  0  0  0  0  0  0  0  0
   22.2141   19.6640   31.8013 N   0  0  0  0  0  0  0  0  0  0  0  0
   24.4387   18.7202   37.3349 N   0  0  0  0  0  0  0  0  0  0  0  0
   26.2333   17.9751   38.5313 N   0  0  0  0  0  0  0  0  0  0  0  0
   31.1642   19.0907   37.3877 Cl  0  0  0  0  0  0  0  0  0  0  0  0
  1  6  1  0
  1 29  1  0
  3  2  1  6
  3  4  1  0
  3 33  1  0
  4 30  2  0
  4 32  1  0
  5  6  2  0
  5 11  1  0
  6 12  1  0
  7  9  1  0
  7 10  1  0
  7 32  2  0
 10  8  1  1
  8 31  2  0
  9 13  1  0
  9 33  2  0
 10 14  1  0
 11 17  2  0
 12 18  2  0
 13 15  1  0
 13 16  1  0
 14 15  2  0
 15 19  1  0
 16 20  1  0
 17 18  1  0
 17 21  1  0
 19 20  1  0
 20 22  1  0
 21 34  1  0
 21 35  2  0
 22 23  1  0
 22 34  2  0
 23 24  1  0
 23 25  2  0
 24 26  2  0
 24 35  1  0
 25 27  1  0
 26 28  1  0
 27 28  2  0
 28 36  1  0
M  END
$$$$
