
     RDKit          3D

 23 26  0  0  0  0  0  0  0  0999 V2000
   21.2999   19.9398   30.2260 C   0  0  0  0  0  0  0  0  0  0  0  0
   21.5700   21.2325   29.8917 C   0  0  0  0  0  0  0  0  0  0  0  0
   21.8256   19.4654   31.4151 C   0  0  0  0  0  0  0  0  0  0  0  0
   22.2839   22.1071   30.6742 C   0  0  0  0  0  0  0  0  0  0  0  0
   22.5361   20.3184   32.2584 C   0  0  0  0  0  0  0  0  0  0  0  0
   22.8517   19.2389   36.9881 C   0  0  0  0  0  0  0  0  0  0  0  0
   22.7892   21.6164   31.8675 C   0  0  0  0  0  0  0  0  0  0  0  0
   23.0951   19.3051   35.6394 C   0  0  0  0  0  0  0  0  0  0  0  0
   23.0327   19.7674   33.5128 C   0  0  0  0  0  0  0  0  0  0  0  0
   23.6794   18.4459   37.8147 C   0  0  0  0  0  0  0  0  0  0  0  0
   24.2055   18.6791   35.1032 C   0  0  0  0  0  0  0  0  0  0  0  0
   24.1613   18.9696   33.7283 C   0  0  0  0  0  0  0  0  0  0  0  0
   24.7643   17.7708   37.2593 C   0  0  0  0  0  0  0  0  0  0  0  0
   25.0643   17.8859   35.8804 C   0  0  0  0  0  0  0  0  0  0  0  0
   25.1138   18.6747   32.6889 C   0  0  0  0  0  0  0  0  0  0  0  0
   25.3232   17.4045   32.2378 C   0  0  0  0  0  0  0  0  0  0  0  0
   25.6222   16.9661   38.1584 C   0  0  0  0  0  0  0  0  0  0  0  0
   26.1922   17.1798   31.2310 C   0  0  0  0  0  0  0  0  0  0  0  0
   25.9809   19.6756   32.2617 C   0  0  0  0  0  0  0  0  0  0  0  0
   26.9303   19.4142   31.2784 C   0  0  0  0  0  0  0  0  0  0  0  0
   27.0086   18.1583   30.7850 C   0  0  0  0  0  0  0  0  0  0  0  0
   21.7780   19.9099   37.5070 O   0  0  0  0  0  0  0  0  0  0  0  0
   22.4131   19.9840   34.6600 O   0  0  0  0  0  0  0  0  0  0  0  0
  1  2  2  0
  1  3  1  0
  2  4  1  0
  3  5  2  0
  4  7  2  0
  5  7  1  0
  5  9  1  0
  6  8  2  0
  6 10  1  0
  6 22  1  0
  8 11  1  0
  8 23  1  0
  9 12  2  0
  9 23  1  0
 10 13  2  0
 11 12  1  0
 11 14  2  0
 12 15  1  0
 13 14  1  0
 13 17  1  0
 15 16  2  0
 15 19  1  0
 16 18  1  0
 18 21  2  0
 19 20  2  0
 20 21  1  0
M  END
$$$$

     RDKit          3D

 25 27  0  0  0  0  0  0  0  0999 V2000
   21.6351   19.8902   29.8697 C   0  0  0  0  0  0  0  0  0  0  0  0
   21.5429   21.1571   30.4418 C   0  0  0  0  0  0  0  0  0  0  0  0
   22.1839   21.4485   31.6637 C   0  0  0  0  0  0  0  0  0  0  0  0
   22.3254   18.8325   30.5240 C   0  0  0  0  0  0  0  0  0  0  0  0
   22.7952   17.9851   38.2320 C   0  0  0  0  0  0  0  0  0  0  0  0
   22.8824   22.9849   34.6184 C   0  0  0  0  0  0  0  0  0  0  0  0
   22.9963   19.1312   31.7313 C   0  0  0  0  0  0  0  0  0  0  0  0
   23.1201   18.9408   37.2385 C   0  0  0  0  0  0  0  0  0  0  0  0
   22.9676   20.4771   32.2864 C   0  0  0  0  0  0  0  0  0  0  0  0
   22.9579   23.0340   36.1368 C   0  0  0  0  0  0  0  0  0  0  0  0
   23.7747   17.0954   38.7252 C   0  0  0  0  0  0  0  0  0  0  0  0
   23.7205   20.7721   33.4913 C   0  0  2  0  0  0  0  0  0  0  0  0
   23.9421   24.0403   36.6815 C   0  0  0  0  0  0  0  0  0  0  0  0
   24.0027   22.2088   33.9620 C   0  0  0  0  0  0  0  0  0  0  0  0
   24.3738   18.3568   33.5191 C   0  0  0  0  0  0  0  0  0  0  0  0
   24.4504   19.0368   36.7272 C   0  0  0  0  0  0  0  0  0  0  0  0
   24.2862   19.6917   34.1975 C   0  0  0  0  0  0  0  0  0  0  0  0
   24.8427   19.9357   35.5793 C   0  0  0  0  0  0  0  0  0  0  0  0
   25.0924   17.1838   38.2224 C   0  0  0  0  0  0  0  0  0  0  0  0
   25.2182   16.1012   33.4641 C   0  0  0  0  0  0  0  0  0  0  0  0
   25.4227   18.1122   37.2364 C   0  0  0  0  0  0  0  0  0  0  0  0
   22.1964   22.2711   36.8302 O   0  0  0  0  0  0  0  0  0  0  0  0
   23.6772   18.1326   32.3741 O   0  0  0  0  0  0  0  0  0  0  0  0
   25.1334   17.4258   34.0333 O   0  0  0  0  0  0  0  0  0  0  0  0
   25.9008   20.6861   35.7632 N   0  0  0  0  0  0  0  0  0  0  0  0
  1  2  2  0
  1  4  1  0
  2  3  1  0
  3  9  2  0
  4  7  2  0
  5  8  2  0
  5 11  1  0
  6 10  1  0
  6 14  1  0
  7  9  1  0
  7 23  1  0
  8 16  1  0
  9 12  1  0
 10 13  1  0
 10 22  2  0
 11 19  2  0
 12 14  1  6
 12 17  1  0
 15 17  2  0
 15 23  1  0
 15 24  1  0
 16 18  1  0
 16 21  2  0
 17 18  1  0
 18 25  2  0
 19 21  1  0
 20 24  1  0
M  END
$$$$

     RDKit          3D

 27 29  0  0  0  0  0  0  0  0999 V2000
   20.9589   17.8970   29.5269 C   0  0  0  0  0  0  0  0  0  0  0  0
   21.6916   19.6604   31.1203 C   0  0  1  0  0  0  0  0  0  0  0  0
   21.9917   18.9715   29.7706 C   0  0  0  0  0  0  0  0  0  0  0  0
   22.1614   23.4605   36.4645 C   0  0  0  0  0  0  0  0  0  0  0  0
   22.2991   22.5154   35.4318 C   0  0  0  0  0  0  0  0  0  0  0  0
   22.3955   22.7974   31.9721 C   0  0  0  0  0  0  0  0  0  0  0  0
   22.6908   21.4720   32.5999 C   0  0  1  0  0  0  0  0  0  0  0  0
   22.9270   20.2007   31.8912 C   0  0  1  0  0  0  0  0  0  0  0  0
   23.3037   24.1837   36.8576 C   0  0  0  0  0  0  0  0  0  0  0  0
   23.5306   22.4240   34.7655 C   0  0  0  0  0  0  0  0  0  0  0  0
   23.9178   20.0920   34.0014 C   0  0  2  0  0  0  0  0  0  0  0  0
   23.7583   21.5119   33.6318 C   0  0  1  0  0  0  0  0  0  0  0  0
   24.4323   17.0615   33.2618 C   0  0  0  0  0  0  0  0  0  0  0  0
   24.2069   19.1642   36.3531 C   0  0  0  0  0  0  0  0  0  0  0  0
   24.4788   18.2681   32.3651 C   0  0  0  0  0  0  0  0  0  0  0  0
   24.6390   23.1587   35.1968 C   0  0  0  0  0  0  0  0  0  0  0  0
   24.5346   24.0054   36.2436 C   0  0  0  0  0  0  0  0  0  0  0  0
   24.7698   19.7715   35.1813 C   0  0  0  0  0  0  0  0  0  0  0  0
   25.0311   18.8416   37.4473 C   0  0  0  0  0  0  0  0  0  0  0  0
   25.3884   15.9875   32.9972 C   0  0  0  0  0  0  0  0  0  0  0  0
   26.1547   20.0055   35.1895 C   0  0  0  0  0  0  0  0  0  0  0  0
   26.3952   19.0947   37.4170 C   0  0  0  0  0  0  0  0  0  0  0  0
   26.9706   19.6555   36.2763 C   0  0  0  0  0  0  0  0  0  0  0  0
   20.8786   20.7916   30.6829 O   0  0  0  0  0  0  0  0  0  0  0  0
   23.5920   19.2947   32.8777 N   0  0  0  0  0  0  0  0  0  0  0  0
   27.5233   18.7533   38.6926 Cl  0  0  0  0  0  0  0  0  0  0  0  0
   28.7249   19.7722   35.9497 Cl  0  0  0  0  0  0  0  0  0  0  0  0
  1  3  1  0
  2  3  1  0
  2  8  1  0
  2 24  1  6
  4  5  2  0
  4  9  1  0
  5 10  1  0
  7  6  1  6
  7  8  1  0
  7 12  1  0
  8 25  1  1
  9 17  2  0
 12 10  1  1
 10 16  2  0
 11 12  1  0
 11 18  1  6
 11 25  1  0
 13 15  1  0
 13 20  1  0
 14 18  2  0
 14 19  1  0
 15 25  1  0
 16 17  1  0
 18 21  1  0
 19 22  2  0
 21 23  2  0
 22 23  1  0
 22 26  1  0
 23 27  1  0
M  END
$$$$

     RDKit          3D

 18 19  0  0  0  0  0  0  0  0999 V2000
   22.5342   18.1732   38.0691 C   0  0  0  0  0  0  0  0  0  0  0  0
   22.5658   18.7254   36.7775 C   0  0  0  0  0  0  0  0  0  0  0  0
   22.8946   22.6969   33.1371 C   0  0  0  0  0  0  0  0  0  0  0  0
   23.4260   20.4219   32.0368 C   0  0  0  0  0  0  0  0  0  0  0  0
   23.3185   21.2515   33.1974 C   0  0  0  0  0  0  0  0  0  0  0  0
   23.5123   20.7351   34.4700 C   0  0  0  0  0  0  0  0  0  0  0  0
   23.7705   17.8027   38.6332 C   0  0  0  0  0  0  0  0  0  0  0  0
   23.9265   18.5299   33.5555 C   0  0  0  0  0  0  0  0  0  0  0  0
   23.7836   18.8961   36.0636 C   0  0  0  0  0  0  0  0  0  0  0  0
   23.7217   19.0312   32.2261 C   0  0  0  0  0  0  0  0  0  0  0  0
   23.7407   19.3937   34.6819 C   0  0  0  0  0  0  0  0  0  0  0  0
   24.9644   18.0272   37.9823 C   0  0  0  0  0  0  0  0  0  0  0  0
   24.9965   18.5525   36.6769 C   0  0  0  0  0  0  0  0  0  0  0  0
   22.4121   23.1369   32.0855 O   0  0  0  0  0  0  0  0  0  0  0  0
   23.0417   23.4422   34.1581 O   0  0  0  0  0  0  0  0  0  0  0  0
   23.8713   17.3223   39.8637 F   0  0  0  0  0  0  0  0  0  0  0  0
   24.2771   17.2315   33.7484 F   0  0  0  0  0  0  0  0  0  0  0  0
   26.1879   18.7070   36.0589 F   0  0  0  0  0  0  0  0  0  0  0  0
  1  2  2  0
  1  7  1  0
  2  9  1  0
  3  5  1  0
  3 14  2  0
  3 15  1  0
  4  5  2  0
  4 10  1  0
  5  6  1  0
  6 11  2  0
  7 12  2  0
  7 16  1  0
  8 10  2  0
  8 11  1  0
  8 17  1  0
  9 11  1  0
  9 13  2  0
 12 13  1  0
 13 18  1  0
M  END
$$$$

     RDKit          3D

 26 29  0  0  0  0  0  0  0  0999 V2000
   21.3966   19.6210   29.5072 C   0  0  0  0  0  0  0  0  0  0  0  0
   21.6564   18.2574   29.2270 C   0  0  0  0  0  0  0  0  0  0  0  0
   22.0452   20.2491   30.6223 C   0  0  0  0  0  0  0  0  0  0  0  0
   21.9880   23.9876   36.7327 C   0  0  0  0  0  0  0  0  0  0  0  0
   22.6133   17.5261   29.9855 C   0  0  0  0  0  0  0  0  0  0  0  0
   22.4701   22.7470   36.1055 C   0  0  0  0  0  0  0  0  0  0  0  0
   22.4967   25.2328   36.2637 C   0  0  0  0  0  0  0  0  0  0  0  0
   22.9833   19.4918   31.3832 C   0  0  0  0  0  0  0  0  0  0  0  0
   23.1128   21.2098   33.0534 C   0  0  0  0  0  0  0  0  0  0  0  0
   23.2807   18.1659   31.0516 C   0  0  0  0  0  0  0  0  0  0  0  0
   23.3171   22.8677   34.9175 C   0  0  2  0  0  0  0  0  0  0  0  0
   23.2702   25.3191   35.0016 C   0  0  0  0  0  0  0  0  0  0  0  0
   23.6762   21.6045   34.2431 C   0  0  0  0  0  0  0  0  0  0  0  0
   24.0250   24.1115   34.5928 C   0  0  0  0  0  0  0  0  0  0  0  0
   24.7870   19.4454   33.0093 C   0  0  0  0  0  0  0  0  0  0  0  0
   25.2916   18.7657   36.3384 C   0  0  0  0  0  0  0  0  0  0  0  0
   25.8902   19.3786   35.2192 C   0  0  0  0  0  0  0  0  0  0  0  0
   26.0714   18.4201   37.4551 C   0  0  0  0  0  0  0  0  0  0  0  0
   27.4609   18.7026   37.4486 C   0  0  0  0  0  0  0  0  0  0  0  0
   27.2789   19.6427   35.1810 C   0  0  0  0  0  0  0  0  0  0  0  0
   28.0452   19.3315   36.3031 C   0  0  0  0  0  0  0  0  0  0  0  0
   23.6541   20.0941   32.4158 N   0  0  0  0  0  0  0  0  0  0  0  0
   24.6236   20.8593   34.7744 N   0  0  0  0  0  0  0  0  0  0  0  0
   25.0502   19.7648   34.2671 N   0  0  0  0  0  0  0  0  0  0  0  0
   29.3841   19.5510   36.4476 F   0  0  0  0  0  0  0  0  0  0  0  0
   28.2946   18.4372   38.8601 Cl  0  0  0  0  0  0  0  0  0  0  0  0
  1  2  2  0
  1  3  1  0
  2  5  1  0
  3  8  2  0
  4  6  1  0
  4  7  2  0
  5 10  2  0
  6 11  1  0
  7 12  1  0
  8 10  1  0
  8 22  1  0
  9 13  1  0
  9 22  1  0
 11 13  1  1
 11 14  1  0
 12 14  1  0
 13 23  2  0
 15 22  1  0
 15 24  1  0
 16 17  2  0
 16 18  1  0
 17 20  1  0
 17 24  1  0
 18 19  2  0
 19 21  1  0
 19 26  1  0
 20 21  2  0
 21 25  1  0
 23 24  1  0
M  END
$$$$

     RDKit          3D

 21 23  0  0  0  0  0  0  0  0999 V2000
   21.9435   18.0159   28.9494 C   0  0  0  0  0  0  0  0  0  0  0  0
   21.8016   18.6376   30.2213 C   0  0  0  0  0  0  0  0  0  0  0  0
   22.0420   20.0229   30.3229 C   0  0  0  0  0  0  0  0  0  0  0  0
   22.6210   19.9926   27.9448 C   0  0  0  0  0  0  0  0  0  0  0  0
   22.4651   20.7111   29.1643 C   0  0  0  0  0  0  0  0  0  0  0  0
   22.7583   21.5977   32.0709 C   0  0  0  0  0  0  0  0  0  0  0  0
   23.0029   21.0415   34.4559 C   0  0  0  0  0  0  0  0  0  0  0  0
   23.6872   20.3960   35.4467 C   0  0  0  0  0  0  0  0  0  0  0  0
   23.4797   20.9131   33.1565 C   0  0  0  0  0  0  0  0  0  0  0  0
   24.5307   20.0733   32.8533 C   0  0  0  0  0  0  0  0  0  0  0  0
   24.9369   17.9151   36.9435 C   0  0  0  0  0  0  0  0  0  0  0  0
   24.8297   19.6498   35.1681 C   0  0  0  0  0  0  0  0  0  0  0  0
   25.2732   19.4574   33.8580 C   0  0  0  0  0  0  0  0  0  0  0  0
   25.5959   17.3460   38.0244 C   0  0  0  0  0  0  0  0  0  0  0  0
   25.5032   19.0450   36.3368 C   0  0  0  0  0  0  0  0  0  0  0  0
   26.7064   19.5324   36.8003 C   0  0  0  0  0  0  0  0  0  0  0  0
   26.8077   17.8545   38.4695 C   0  0  0  0  0  0  0  0  0  0  0  0
   27.3524   18.9691   37.8640 C   0  0  0  0  0  0  0  0  0  0  0  0
   26.2864   18.6003   33.5828 O   0  0  0  0  0  0  0  0  0  0  0  0
   21.7598   20.7042   31.4903 N   0  0  0  0  0  0  0  0  0  0  0  0
   22.3473   18.6950   27.8683 N   0  0  0  0  0  0  0  0  0  0  0  0
  1  2  2  0
  1 21  1  0
  2  3  1  0
  3  5  2  0
  3 20  1  0
  4  5  1  0
  4 21  2  0
  6  9  1  0
  6 20  1  0
  7  8  2  0
  7  9  1  0
  8 12  1  0
  9 10  2  0
 10 13  1  0
 11 14  2  0
 11 15  1  0
 12 13  2  0
 12 15  1  0
 13 19  1  0
 14 17  1  0
 15 16  2  0
 16 18  1  0
 17 18  2  0
M  END
$$$$

     RDKit          3D

 22 24  0  0  0  0  0  0  0  0999 V2000
   22.3452   21.1698   31.9984 C   0  0  0  0  0  0  0  0  0  0  0  0
   22.4287   22.6790   32.2941 C   0  0  0  0  0  0  0  0  0  0  0  0
   23.4931   21.8839   34.3734 C   0  0  0  0  0  0  0  0  0  0  0  0
   23.7248   20.6055   31.8293 C   0  0  0  0  0  0  0  0  0  0  0  0
   24.3355   17.4115   33.2765 C   0  0  0  0  0  0  0  0  0  0  0  0
   24.4905   17.9771   38.4936 C   0  0  0  0  0  0  0  0  0  0  0  0
   24.5414   19.4763   36.4327 C   0  0  0  0  0  0  0  0  0  0  0  0
   24.5710   20.8229   34.1794 C   0  0  1  0  0  0  0  0  0  0  0  0
   24.8676   16.1560   32.9387 C   0  0  0  0  0  0  0  0  0  0  0  0
   24.7222   18.5479   32.5479 C   0  0  0  0  0  0  0  0  0  0  0  0
   25.2049   18.7868   37.4747 C   0  0  0  0  0  0  0  0  0  0  0  0
   25.2307   20.1826   35.4230 C   0  0  0  0  0  0  0  0  0  0  0  0
   25.5402   18.4107   31.4110 C   0  0  0  0  0  0  0  0  0  0  0  0
   25.7509   16.0345   31.8344 C   0  0  0  0  0  0  0  0  0  0  0  0
   26.0725   17.1488   31.0711 C   0  0  0  0  0  0  0  0  0  0  0  0
   26.6113   18.9035   37.5042 C   0  0  0  0  0  0  0  0  0  0  0  0
   26.6300   20.2210   35.5019 C   0  0  0  0  0  0  0  0  0  0  0  0
   27.3041   19.5947   36.5431 C   0  0  0  0  0  0  0  0  0  0  0  0
   22.7034   21.8720   35.2780 O   0  0  0  0  0  0  0  0  0  0  0  0
   23.3882   22.8496   33.4063 N   0  0  0  0  0  0  0  0  0  0  0  0
   24.2652   19.8809   32.9540 N   0  0  0  0  0  0  0  0  0  0  0  0
   22.9157   19.2681   36.2665 Cl  0  0  0  0  0  0  0  0  0  0  0  0
  1  2  1  0
  1  4  1  0
  2 20  1  0
  3  8  1  0
  3 19  2  0
  3 20  1  0
  4 21  1  0
  5  9  1  0
  5 10  2  0
  6 11  1  0
  7 11  2  0
  7 12  1  0
  7 22  1  0
  8 12  1  1
  8 21  1  0
  9 14  1  0
 10 13  1  0
 10 21  1  0
 11 16  1  0
 12 17  2  0
 13 15  1  0
 14 15  2  0
 16 18  2  0
 17 18  1  0
M  END
$$$$

     RDKit          3D

 29 33  0  0  0  0  0  0  0  0999 V2000
   21.4356   19.9440   30.2964 C   0  0  0  0  0  0  0  0  0  0  0  0
   21.9008   19.4019   31.5224 C   0  0  0  0  0  0  0  0  0  0  0  0
   22.1699   20.0194   34.9133 C   0  0  0  0  0  0  0  0  0  0  0  0
   22.1804   22.0693   30.8891 C   0  0  0  0  0  0  0  0  0  0  0  0
   22.4265   20.2906   32.4187 C   0  0  0  0  0  0  0  0  0  0  0  0
   22.5819   19.1873   37.1781 C   0  0  0  0  0  0  0  0  0  0  0  0
   22.6865   21.6011   32.0913 C   0  0  0  0  0  0  0  0  0  0  0  0
   22.7050   15.9213   40.6830 C   0  0  0  0  0  0  0  0  0  0  0  0
   22.7462   17.6610   38.9862 C   0  0  0  0  0  0  0  0  0  0  0  0
   22.8651   19.8387   33.7304 C   0  0  0  0  0  0  0  0  0  0  0  0
   23.4291   16.6376   39.6332 C   0  0  0  0  0  0  0  0  0  0  0  0
   23.3720   18.2362   37.8930 C   0  0  0  0  0  0  0  0  0  0  0  0
   24.1068   18.7851   35.2385 C   0  0  0  0  0  0  0  0  0  0  0  0
   24.0762   19.1703   33.9171 C   0  0  0  0  0  0  0  0  0  0  0  0
   24.6308   17.7734   37.4166 C   0  0  0  0  0  0  0  0  0  0  0  0
   24.7376   16.2879   39.3185 C   0  0  0  0  0  0  0  0  0  0  0  0
   25.1496   17.6738   32.2854 C   0  0  0  0  0  0  0  0  0  0  0  0
   25.0476   18.0895   36.0575 C   0  0  0  0  0  0  0  0  0  0  0  0
   25.0540   18.9504   32.8020 C   0  0  0  0  0  0  0  0  0  0  0  0
   25.3497   16.9079   38.2285 C   0  0  0  0  0  0  0  0  0  0  0  0
   25.8076   19.9855   32.2286 C   0  0  0  0  0  0  0  0  0  0  0  0
   26.0979   17.4065   31.3092 C   0  0  0  0  0  0  0  0  0  0  0  0
   26.9188   18.3955   30.7460 C   0  0  0  0  0  0  0  0  0  0  0  0
   26.7696   19.7001   31.1939 C   0  0  0  0  0  0  0  0  0  0  0  0
   21.6328   19.8543   37.6601 O   0  0  0  0  0  0  0  0  0  0  0  0
   21.5406   21.2297   30.0431 N   0  0  0  0  0  0  0  0  0  0  0  0
   22.9129   19.3395   35.8587 N   0  0  0  0  0  0  0  0  0  0  0  0
   26.2349   15.6793   30.8414 Cl  0  0  0  0  0  0  0  0  0  0  0  0
   28.1907   17.8921   29.5495 Cl  0  0  0  0  0  0  0  0  0  0  0  0
  1  2  2  0
  1 26  1  0
  2  5  1  0
  3 10  1  0
  3 27  1  0
  4  7  1  0
  4 26  2  0
  5  7  2  0
  5 10  1  0
  6 12  1  0
  6 25  2  0
  6 27  1  0
  8 11  1  0
  9 11  1  0
  9 12  2  0
 10 14  1  0
 11 16  1  0
 12 15  1  0
 13 14  2  0
 13 18  1  0
 13 27  1  0
 14 19  1  0
 15 18  2  0
 15 20  1  0
 16 20  2  0
 17 19  2  0
 17 22  1  0
 19 21  1  0
 21 24  2  0
 22 23  2  0
 22 28  1  0
 23 24  1  0
 23 29  1  0
M  END
$$$$

     RDKit          3D

 22 23  0  0  0  0  0  0  0  0999 V2000
   21.2387   20.0288   29.9189 C   0  0  0  0  0  0  0  0  0  0  0  0
   21.9426   20.6938   31.0618 C   0  0  0  0  0  0  0  0  0  0  0  0
   22.0015   22.0839   31.0926 C   0  0  0  0  0  0  0  0  0  0  0  0
   22.3608   16.6266   41.2087 C   0  0  0  0  0  0  0  0  0  0  0  0
   22.5488   22.7496   32.2041 C   0  0  0  0  0  0  0  0  0  0  0  0
   22.9029   18.5218   37.5828 C   0  0  0  0  0  0  0  0  0  0  0  0
   23.0674   17.7074   41.7558 C   0  0  0  0  0  0  0  0  0  0  0  0
   22.9847   20.5697   33.2184 C   0  0  0  0  0  0  0  0  0  0  0  0
   23.0695   21.9530   33.2237 C   0  0  0  0  0  0  0  0  0  0  0  0
   23.3443   17.5678   38.5594 C   0  0  0  0  0  0  0  0  0  0  0  0
   23.4559   19.7134   34.3546 C   0  0  0  0  0  0  0  0  0  0  0  0
   23.8464   19.1917   36.7820 C   0  0  0  0  0  0  0  0  0  0  0  0
   24.7084   17.4405   38.8474 C   0  0  0  0  0  0  0  0  0  0  0  0
   25.2029   18.9452   37.0718 C   0  0  0  0  0  0  0  0  0  0  0  0
   25.6391   18.1006   38.0830 C   0  0  0  0  0  0  0  0  0  0  0  0
   26.3163   19.5901   36.3709 C   0  0  0  0  0  0  0  0  0  0  0  0
   27.6413   19.0113   36.8883 C   0  0  0  0  0  0  0  0  0  0  0  0
   23.6173   15.2608   39.6008 O   0  0  0  0  0  0  0  0  0  0  0  0
   23.7877   18.5477   34.0627 O   0  0  0  0  0  0  0  0  0  0  0  0
   22.4432   19.9652   32.1335 N   0  0  0  0  0  0  0  0  0  0  0  0
   23.4454   20.1007   35.7026 N   0  0  0  0  0  0  0  0  0  0  0  0
   22.4784   16.4773   39.5015 S   0  0  1  0  0  0  0  0  0  0  0  0
  1  2  1  0
  2  3  2  0
  2 20  1  0
  3  5  1  0
  4  7  1  0
  4 22  1  0
  5  9  2  0
  6 10  2  0
  6 12  1  0
  8  9  1  0
  8 11  1  0
  8 20  2  0
 10 13  1  0
 10 22  1  0
 11 19  2  0
 11 21  1  0
 12 14  2  0
 12 21  1  0
 13 15  2  0
 14 15  1  0
 14 16  1  0
 16 17  1  0
 22 18  1  1
M  END
$$$$

     RDKit          3D

 33 36  0  0  0  0  0  0  0  0999 V2000
   21.9060   20.0198   31.1113 C   0  0  0  0  0  0  0  0  0  0  0  0
   22.2276   22.7173   35.7240 C   0  0  0  0  0  0  0  0  0  0  0  0
   22.2206   23.7153   36.7491 C   0  0  0  0  0  0  0  0  0  0  0  0
   22.4963   22.9149   32.0778 C   0  0  0  0  0  0  0  0  0  0  0  0
   22.8408   20.4350   32.1628 C   0  0  2  0  0  0  0  0  0  0  0  0
   23.3983   21.5661   33.9424 C   0  0  0  0  0  0  0  0  0  0  0  0
   23.3814   22.6092   34.9567 C   0  0  0  0  0  0  0  0  0  0  0  0
   23.2882   24.5895   36.8959 C   0  0  0  0  0  0  0  0  0  0  0  0
   23.8248   19.6493   32.8311 C   0  0  2  0  0  0  0  0  0  0  0  0
   24.1007   20.3983   33.9603 C   0  0  0  0  0  0  0  0  0  0  0  0
   24.3554   17.2545   33.1726 C   0  0  0  0  0  0  0  0  0  0  0  0
   24.2368   19.2298   36.0619 C   0  0  0  0  0  0  0  0  0  0  0  0
   24.4531   23.4581   35.0641 C   0  0  0  0  0  0  0  0  0  0  0  0
   24.3813   24.4326   36.0694 C   0  0  0  0  0  0  0  0  0  0  0  0
   24.5582   18.4498   32.4465 C   0  0  0  0  0  0  0  0  0  0  0  0
   24.8716   19.9299   35.0598 C   0  0  0  0  0  0  0  0  0  0  0  0
   25.0636   16.0871   32.8812 C   0  0  0  0  0  0  0  0  0  0  0  0
   25.0054   18.7024   37.0974 C   0  0  0  0  0  0  0  0  0  0  0  0
   25.5123   18.4537   31.4007 C   0  0  0  0  0  0  0  0  0  0  0  0
   25.9733   16.0716   31.7822 C   0  0  0  0  0  0  0  0  0  0  0  0
   26.2338   17.2665   31.0543 C   0  0  0  0  0  0  0  0  0  0  0  0
   26.3868   18.8331   37.0690 C   0  0  0  0  0  0  0  0  0  0  0  0
   26.2399   20.0988   35.0345 C   0  0  0  0  0  0  0  0  0  0  0  0
   26.6672   19.8541   29.7054 C   0  0  0  0  0  0  0  0  0  0  0  0
   27.0040   19.5520   36.0506 C   0  0  0  0  0  0  0  0  0  0  0  0
   20.9556   20.8179   30.7112 O   0  0  0  0  0  0  0  0  0  0  0  0
   22.0576   18.8796   30.6048 O   0  0  0  0  0  0  0  0  0  0  0  0
   25.7004   19.6631   30.7244 O   0  0  0  0  0  0  0  0  0  0  0  0
   22.6990   21.6168   32.7951 N   0  0  0  0  0  0  0  0  0  0  0  0
   26.8373   20.7471   34.0217 N   0  0  0  0  0  0  0  0  0  0  0  0
   24.2184   17.9229   38.4143 Cl  0  0  0  0  0  0  0  0  0  0  0  0
   27.2265   18.3626   38.4439 Cl  0  0  0  0  0  0  0  0  0  0  0  0
   28.7881   19.5591   36.1146 Cl  0  0  0  0  0  0  0  0  0  0  0  0
  5  1  1  1
  1 26  2  0
  1 27  1  0
  2  3  2  0
  2  7  1  0
  3  8  1  0
  4 29  1  0
  5  9  1  0
  5 29  1  0
  6  7  1  0
  6 10  2  0
  6 29  1  0
  7 13  2  0
  8 14  2  0
  9 10  1  0
  9 15  1  6
 10 16  1  0
 11 15  2  0
 11 17  1  0
 12 16  2  0
 12 18  1  0
 13 14  1  0
 15 19  1  0
 16 23  1  0
 17 20  2  0
 18 22  2  0
 18 31  1  0
 19 21  2  0
 19 28  1  0
 20 21  1  0
 22 25  1  0
 22 32  1  0
 23 25  2  0
 23 30  1  0
 24 28  1  0
 25 33  1  0
M  END
$$$$

     RDKit          3D

 25 27  0  0  0  0  0  0  0  0999 V2000
   22.5608   21.6628   35.6130 C   0  0  0  0  0  0  0  0  0  0  0  0
   22.5882   22.8950   36.2428 C   0  0  0  0  0  0  0  0  0  0  0  0
   22.9399   18.3549   37.1244 C   0  0  0  0  0  0  0  0  0  0  0  0
   22.8908   18.8286   30.4501 C   0  0  0  0  0  0  0  0  0  0  0  0
   23.1195   17.9684   38.4439 C   0  0  0  0  0  0  0  0  0  0  0  0
   23.2985   19.8394   33.1351 C   0  0  0  0  0  0  0  0  0  0  0  0
   23.6223   18.0987   31.4367 C   0  0  0  0  0  0  0  0  0  0  0  0
   23.7941   18.5042   32.6784 C   0  0  0  0  0  0  0  0  0  0  0  0
   23.8956   18.7261   34.8711 C   0  0  1  0  0  0  0  0  0  0  0  0
   23.7947   20.0705   30.8268 C   0  0  0  0  0  0  0  0  0  0  0  0
   23.7072   21.1370   35.1509 C   0  0  0  0  0  0  0  0  0  0  0  0
   23.8260   23.5272   36.4622 C   0  0  0  0  0  0  0  0  0  0  0  0
   24.0172   18.4026   36.2880 C   0  0  0  0  0  0  0  0  0  0  0  0
   24.3755   17.6545   38.8950 C   0  0  0  0  0  0  0  0  0  0  0  0
   24.9432   21.7449   35.3406 C   0  0  2  0  0  0  0  0  0  0  0  0
   25.0702   19.9872   30.0260 C   0  0  0  0  0  0  0  0  0  0  0  0
   24.9956   22.9635   36.0090 C   0  0  0  0  0  0  0  0  0  0  0  0
   25.2431   18.1408   36.7578 C   0  0  0  0  0  0  0  0  0  0  0  0
   25.4626   17.7708   38.0816 C   0  0  0  0  0  0  0  0  0  0  0  0
   26.4894   20.1894   30.4287 C   0  0  0  0  0  0  0  0  0  0  0  0
   23.8264   24.7743   37.1523 O   0  0  0  0  0  0  0  0  0  0  0  0
   24.9795   16.9473   33.9867 O   0  0  0  0  0  0  0  0  0  0  0  0
   23.5254   19.9451   34.4615 N   0  0  0  0  0  0  0  0  0  0  0  0
   24.1909   17.9589   33.8736 N   0  0  0  0  0  0  0  0  0  0  0  0
   26.4371   21.2181   34.7242 Cl  0  0  0  0  0  0  0  0  0  0  0  0
  1  2  1  0
  1 11  2  0
  2 12  1  0
  3  5  2  0
  3 13  1  0
  4  7  1  0
  4 10  1  0
  5 14  1  0
  6  8  1  0
  6 23  1  0
  7  8  2  3
  8 24  1  0
  9 13  1  1
  9 23  1  0
  9 24  1  0
 10 16  1  0
 11 15  1  0
 11 23  1  0
 12 17  2  0
 12 21  1  0
 13 18  2  0
 14 19  2  0
 15 17  1  0
 15 25  1  6
 16 20  1  0
 18 19  1  0
 22 24  1  0
M  END
$$$$

     RDKit          3D

 20 22  0  0  0  0  0  0  0  0999 V2000
   21.8990   21.8697   30.4951 C   0  0  0  0  0  0  0  0  0  0  0  0
   22.5059   23.1327   32.3712 C   0  0  0  0  0  0  0  0  0  0  0  0
   23.0969   20.2398   35.5679 C   0  0  0  0  0  0  0  0  0  0  0  0
   23.2936   19.1282   36.3140 C   0  0  0  0  0  0  0  0  0  0  0  0
   23.2948   20.8962   32.0675 C   0  0  0  0  0  0  0  0  0  0  0  0
   23.2502   22.0486   32.8922 C   0  0  0  0  0  0  0  0  0  0  0  0
   23.9836   19.6329   32.3391 C   0  0  0  0  0  0  0  0  0  0  0  0
   24.1170   21.0196   35.0916 C   0  0  0  0  0  0  0  0  0  0  0  0
   23.9654   22.2062   34.1721 C   0  0  0  0  0  0  0  0  0  0  0  0
   24.6296   18.7543   36.6382 C   0  0  0  0  0  0  0  0  0  0  0  0
   25.4308   20.6922   35.4305 C   0  0  0  0  0  0  0  0  0  0  0  0
   25.6793   19.5881   36.2484 C   0  0  0  0  0  0  0  0  0  0  0  0
   27.0446   19.3133   36.6575 C   0  0  0  0  0  0  0  0  0  0  0  0
   27.3619   19.0909   37.9663 C   0  0  0  0  0  0  0  0  0  0  0  0
   28.0475   19.2584   35.6866 C   0  0  0  0  0  0  0  0  0  0  0  0
   28.6572   18.7274   38.3862 C   0  0  0  0  0  0  0  0  0  0  0  0
   29.4265   18.9067   36.1268 C   0  0  0  0  0  0  0  0  0  0  0  0
   29.6383   18.5996   37.4326 C   0  0  0  0  0  0  0  0  0  0  0  0
   21.8205   22.9746   31.2027 N   0  0  0  0  0  0  0  0  0  0  0  0
   22.6550   20.8677   30.8783 N   0  0  0  0  0  0  0  0  0  0  0  0
  1 19  2  0
  1 20  1  0
  2  6  2  0
  2 19  1  0
  3  4  2  0
  3  8  1  0
  4 10  1  0
  5  6  1  0
  5  7  1  0
  5 20  2  0
  6  9  1  0
  8  9  1  0
  8 11  2  0
 10 12  2  0
 11 12  1  0
 12 13  1  0
 13 14  2  0
 13 15  1  0
 14 16  1  0
 15 17  1  0
 16 18  1  0
 17 18  2  0
M  END
$$$$

     RDKit          3D

 22 23  0  0  0  0  0  0  0  0999 V2000
   22.4352   23.4196   36.3109 C   0  0  0  0  0  0  0  0  0  0  0  0
   23.4470   18.1646   37.6454 C   0  0  0  0  0  0  0  0  0  0  0  0
   23.4396   24.3111   37.0377 C   0  0  0  0  0  0  0  0  0  0  0  0
   23.8313   16.7880   38.1637 C   0  0  0  0  0  0  0  0  0  0  0  0
   24.0972   20.3754   29.5605 C   0  0  0  0  0  0  0  0  0  0  0  0
   24.0813   22.4428   34.9102 C   0  0  0  0  0  0  0  0  0  0  0  0
   24.3343   19.9674   34.7645 C   0  0  0  0  0  0  0  0  0  0  0  0
   24.4313   21.2956   32.7273 C   0  0  0  0  0  0  0  0  0  0  0  0
   24.2466   21.2012   34.1106 C   0  0  2  0  0  0  0  0  0  0  0  0
   24.6382   18.8495   34.0290 C   0  0  0  0  0  0  0  0  0  0  0  0
   24.4565   18.7170   36.7589 C   0  0  2  0  0  0  0  0  0  0  0  0
   24.7103   20.1274   31.9719 C   0  0  0  0  0  0  0  0  0  0  0  0
   24.7953   18.9267   32.6729 C   0  0  0  0  0  0  0  0  0  0  0  0
   25.1710   17.6641   31.9898 C   0  0  0  0  0  0  0  0  0  0  0  0
   25.2722   16.5996   38.4333 C   0  0  0  0  0  0  0  0  0  0  0  0
   25.8846   18.5181   37.0430 C   0  0  0  0  0  0  0  0  0  0  0  0
   26.2176   17.6604   38.1578 C   0  0  0  0  0  0  0  0  0  0  0  0
   23.1766   21.1934   29.8734 O   0  0  0  0  0  0  0  0  0  0  0  0
   23.0969   22.2314   35.9262 O   0  0  0  0  0  0  0  0  0  0  0  0
   24.1921   19.7615   28.5013 O   0  0  0  0  0  0  0  0  0  0  0  0
   24.1044   19.8781   36.1216 N   0  0  0  0  0  0  0  0  0  0  0  0
   25.0180   20.0669   30.5764 N   0  0  0  0  0  0  0  0  0  0  0  0
  1  3  1  0
  1 19  1  0
  2  4  1  0
 11  2  1  1
  4 15  2  0
  5 18  2  0
  5 20  1  0
  5 22  1  0
  9  6  1  1
  6 19  1  0
  7  9  1  0
  7 10  1  0
  7 21  2  3
  8  9  1  0
  8 12  2  0
 10 13  2  0
 11 16  1  0
 11 21  1  0
 12 13  1  0
 12 22  1  0
 13 14  1  0
 15 17  1  0
 16 17  1  0
M  END
$$$$

     RDKit          3D

 32 35  0  0  0  0  0  0  0  0999 V2000
   21.8963   18.2920   29.3981 C   0  0  0  0  0  0  0  0  0  0  0  0
   21.7929   19.1305   30.6144 C   0  0  0  0  0  0  0  0  0  0  0  0
   22.3304   18.8620   28.1215 C   0  0  0  0  0  0  0  0  0  0  0  0
   22.9912   21.1421   31.4638 C   0  0  0  0  0  0  0  0  0  0  0  0
   23.2055   22.6080   33.0925 C   0  0  0  0  0  0  0  0  0  0  0  0
   23.3141   20.4234   35.9980 C   0  0  0  0  0  0  0  0  0  0  0  0
   24.2594   20.8910   32.0115 C   0  0  0  0  0  0  0  0  0  0  0  0
   24.4264   21.8456   33.0337 C   0  0  2  0  0  0  0  0  0  0  0  0
   24.7597   20.1519   35.8268 C   0  0  0  0  0  0  0  0  0  0  0  0
   25.2185   18.5906   31.7730 C   0  0  0  0  0  0  0  0  0  0  0  0
   25.3484   19.3876   36.7796 C   0  0  0  0  0  0  0  0  0  0  0  0
   25.2505   19.9763   31.5165 C   0  0  0  0  0  0  0  0  0  0  0  0
   25.5238   20.6647   34.7941 C   0  0  2  0  0  0  0  0  0  0  0  0
   26.1508   17.7483   31.1796 C   0  0  0  0  0  0  0  0  0  0  0  0
   26.2324   20.5083   30.6535 C   0  0  0  0  0  0  0  0  0  0  0  0
   26.7527   19.1699   36.7700 C   0  0  0  0  0  0  0  0  0  0  0  0
   26.8999   20.4464   34.7087 C   0  0  0  0  0  0  0  0  0  0  0  0
   27.1299   18.2756   30.3969 C   0  0  0  0  0  0  0  0  0  0  0  0
   27.1799   19.6504   30.1176 C   0  0  0  0  0  0  0  0  0  0  0  0
   27.3955   18.6073   37.8531 C   0  0  0  0  0  0  0  0  0  0  0  0
   27.5420   19.6564   35.6885 C   0  0  0  0  0  0  0  0  0  0  0  0
   28.7687   18.4702   37.8674 C   0  0  0  0  0  0  0  0  0  0  0  0
   28.9069   19.4133   35.6465 C   0  0  0  0  0  0  0  0  0  0  0  0
   29.4587   18.7911   36.7339 C   0  0  0  0  0  0  0  0  0  0  0  0
   22.0467   18.2324   26.9638 O   0  0  0  0  0  0  0  0  0  0  0  0
   22.4344   20.4162   30.4970 O   0  0  0  0  0  0  0  0  0  0  0  0
   22.5651   19.4289   36.1114 O   0  0  0  0  0  0  0  0  0  0  0  0
   22.4618   22.1605   32.0604 O   0  0  0  0  0  0  0  0  0  0  0  0
   22.9503   21.6093   36.2797 O   0  0  0  0  0  0  0  0  0  0  0  0
   23.0692   19.8066   28.1371 O   0  0  0  0  0  0  0  0  0  0  0  0
   25.2059   21.8818   34.1269 O   0  0  0  0  0  0  0  0  0  0  0  0
   31.1669   18.6943   36.7543 Cl  0  0  0  0  0  0  0  0  0  0  0  0
  1  2  1  0
  1  3  1  0
  2 26  1  0
  3 25  2  0
  3 30  1  0
  4  7  2  0
  4 26  1  0
  4 28  1  0
  5  8  1  0
  5 28  1  0
  6  9  1  0
  6 27  2  0
  6 29  1  0
  7  8  1  0
  7 12  1  0
  8 31  1  1
  9 11  2  0
  9 13  1  0
 10 12  2  0
 10 14  1  0
 11 16  1  0
 12 15  1  0
 13 17  1  0
 13 31  1  1
 14 18  2  0
 15 19  2  0
 16 20  1  0
 16 21  2  0
 17 21  1  0
 18 19  1  0
 20 22  2  0
 21 23  1  0
 22 24  1  0
 23 24  2  0
 24 32  1  0
M  END
$$$$

     RDKit          3D

 33 37  0  0  0  0  0  0  0  0999 V2000
   21.1536   19.9207   29.6822 C   0  0  0  0  0  0  0  0  0  0  0  0
   21.4111   19.0023   30.7336 C   0  0  0  0  0  0  0  0  0  0  0  0
   21.6136   21.2221   29.8123 C   0  0  0  0  0  0  0  0  0  0  0  0
   22.1027   19.4144   31.8626 C   0  0  0  0  0  0  0  0  0  0  0  0
   22.3512   21.6579   30.9338 C   0  0  0  0  0  0  0  0  0  0  0  0
   22.7045   20.6927   31.9130 C   0  0  0  0  0  0  0  0  0  0  0  0
   23.2323   23.3717   36.5422 C   0  0  1  0  0  0  0  0  0  0  0  0
   23.3565   24.6755   37.1253 C   0  0  0  0  0  0  0  0  0  0  0  0
   23.5987   20.9502   33.0710 C   0  0  1  0  0  0  0  0  0  0  0  0
   23.6023   22.1146   33.9082 C   0  0  0  0  0  0  0  0  0  0  0  0
   24.1390   18.8216   36.6445 C   0  0  0  0  0  0  0  0  0  0  0  0
   24.3452   17.9573   37.7389 C   0  0  0  0  0  0  0  0  0  0  0  0
   24.3762   20.0037   33.7078 C   0  0  1  0  0  0  0  0  0  0  0  0
   24.5877   17.6061   33.6358 C   0  0  0  0  0  0  0  0  0  0  0  0
   24.5391   22.6752   36.1833 C   0  0  0  0  0  0  0  0  0  0  0  0
   24.9031   16.4194   33.0400 C   0  0  0  0  0  0  0  0  0  0  0  0
   24.9253   18.7880   33.0900 C   0  0  0  0  0  0  0  0  0  0  0  0
   24.7325   20.4646   35.0056 C   0  0  2  0  0  0  0  0  0  0  0  0
   25.1621   19.6474   36.1625 C   0  0  0  0  0  0  0  0  0  0  0  0
   25.6216   17.8975   38.3080 C   0  0  0  0  0  0  0  0  0  0  0  0
   25.7866   16.3952   31.9509 C   0  0  0  0  0  0  0  0  0  0  0  0
   25.8393   18.8292   31.9706 C   0  0  0  0  0  0  0  0  0  0  0  0
   26.2649   17.6272   31.4003 C   0  0  0  0  0  0  0  0  0  0  0  0
   26.4621   19.5414   36.7290 C   0  0  0  0  0  0  0  0  0  0  0  0
   26.2782   20.0641   31.3764 C   0  0  0  0  0  0  0  0  0  0  0  0
   26.7029   18.6402   37.8139 C   0  0  0  0  0  0  0  0  0  0  0  0
   27.1559   17.6469   30.2926 C   0  0  0  0  0  0  0  0  0  0  0  0
   27.1659   20.0720   30.2730 C   0  0  0  0  0  0  0  0  0  0  0  0
   27.5512   18.8262   29.7056 C   0  0  0  0  0  0  0  0  0  0  0  0
   28.0581   18.6621   38.4626 C   0  0  0  0  0  0  0  0  0  0  0  0
   22.2039   22.6170   36.7549 O   0  0  0  0  0  0  0  0  0  0  0  0
   22.9733   23.2150   33.5946 O   0  0  0  0  0  0  0  0  0  0  0  0
   24.2755   21.7418   35.0631 N   0  0  0  0  0  0  0  0  0  0  0  0
  1  2  2  0
  1  3  1  0
  2  4  1  0
  3  5  2  0
  4  6  2  0
  5  6  1  0
  9  6  1  1
  7  8  1  1
  7 15  1  0
  7 31  1  0
  9 10  1  0
  9 13  1  0
 10 32  2  0
 10 33  1  0
 11 12  2  0
 11 19  1  0
 12 20  1  0
 13 17  1  6
 13 18  1  0
 14 16  2  0
 14 17  1  0
 15 33  1  0
 16 21  1  0
 17 22  2  0
 18 19  1  1
 18 33  1  0
 19 24  2  0
 20 26  2  0
 21 23  2  0
 22 23  1  0
 22 25  1  0
 23 27  1  0
 24 26  1  0
 25 28  2  0
 26 30  1  0
 27 29  2  0
 28 29  1  0
M  END
$$$$

     RDKit          3D

 35 40  0  0  0  0  0  0  0  0999 V2000
   21.3906   19.4675   29.8413 C   0  0  0  0  0  0  0  0  0  0  0  0
   21.5829   20.7530   29.3399 C   0  0  0  0  0  0  0  0  0  0  0  0
   21.7707   19.1579   31.1300 C   0  0  0  0  0  0  0  0  0  0  0  0
   22.1633   21.7104   30.1611 C   0  0  0  0  0  0  0  0  0  0  0  0
   22.3648   20.0893   31.9636 C   0  0  0  0  0  0  0  0  0  0  0  0
   22.3919   22.9473   33.2346 C   0  0  0  0  0  0  0  0  0  0  0  0
   22.2215   23.2740   35.6782 C   0  0  0  0  0  0  0  0  0  0  0  0
   22.4799   16.4622   38.9184 C   0  0  0  0  0  0  0  0  0  0  0  0
   22.5201   18.7729   36.8916 C   0  0  0  0  0  0  0  0  0  0  0  0
   22.5630   21.3846   31.4624 C   0  0  0  0  0  0  0  0  0  0  0  0
   22.7843   19.1451   35.5492 C   0  0  0  0  0  0  0  0  0  0  0  0
   22.7434   19.6766   33.4003 C   0  0  0  0  0  0  0  0  0  0  0  0
   23.1694   17.8219   39.0898 C   0  0  0  0  0  0  0  0  0  0  0  0
   23.0276   23.2239   34.5513 C   0  0  2  0  0  0  0  0  0  0  0  0
   23.0529   23.7381   36.7460 C   0  0  0  0  0  0  0  0  0  0  0  0
   23.5563   18.3065   37.7067 C   0  0  0  0  0  0  0  0  0  0  0  0
   24.0852   18.9817   35.0698 C   0  0  0  0  0  0  0  0  0  0  0  0
   24.0619   19.2607   33.6922 C   0  0  0  0  0  0  0  0  0  0  0  0
   24.4109   17.6763   39.9482 C   0  0  0  0  0  0  0  0  0  0  0  0
   24.3632   23.9170   36.1876 C   0  0  0  0  0  0  0  0  0  0  0  0
   24.9233   16.3800   32.8403 C   0  0  0  0  0  0  0  0  0  0  0  0
   24.8793   18.2941   37.2489 C   0  0  0  0  0  0  0  0  0  0  0  0
   25.1685   18.6005   35.9001 C   0  0  0  0  0  0  0  0  0  0  0  0
   25.0647   19.0178   32.7049 C   0  0  0  0  0  0  0  0  0  0  0  0
   25.2993   17.7029   32.1893 C   0  0  1  0  0  0  0  0  0  0  0  0
   25.6652   15.2314   32.4602 C   0  0  0  0  0  0  0  0  0  0  0  0
   25.7891   20.0853   32.1555 C   0  0  0  0  0  0  0  0  0  0  0  0
   26.2570   15.1844   31.2642 C   0  0  0  0  0  0  0  0  0  0  0  0
   26.2274   17.5230   31.1836 C   0  0  2  0  0  0  0  0  0  0  0  0
   26.6174   16.2511   30.7715 C   0  0  0  0  0  0  0  0  0  0  0  0
   26.8126   19.8741   31.1939 C   0  0  0  0  0  0  0  0  0  0  0  0
   27.0244   18.6091   30.7442 C   0  0  0  0  0  0  0  0  0  0  0  0
   23.1785   22.3490   32.2431 O   0  0  0  0  0  0  0  0  0  0  0  0
   22.0028   19.5845   34.4573 N   0  0  0  0  0  0  0  0  0  0  0  0
   24.2824   23.5701   34.8695 N   0  0  0  0  0  0  0  0  0  0  0  0
  1  2  2  0
  1  3  1  0
  2  4  1  0
  3  5  2  0
  4 10  2  0
  5 10  1  0
  5 12  1  0
 14  6  1  6
  6 33  1  0
  7 14  1  0
  7 15  1  0
  8 13  1  0
  9 11  1  0
  9 16  1  0
 10 33  1  0
 11 17  2  0
 11 34  1  0
 12 18  2  0
 12 34  1  0
 13 16  1  0
 13 19  1  0
 14 35  1  0
 15 20  1  0
 16 22  2  0
 17 18  1  0
 17 23  1  0
 18 24  1  0
 20 35  1  0
 25 21  1  1
 21 26  1  0
 22 23  1  0
 24 25  1  0
 24 27  2  0
 25 29  1  0
 26 28  1  0
 27 31  1  0
 28 30  2  0
 29 30  1  1
 29 32  1  0
 31 32  2  0
M  END
$$$$

     RDKit          3D

 27 30  0  0  0  0  0  0  0  0999 V2000
   21.9208   20.2145   30.8983 C   0  0  0  0  0  0  0  0  0  0  0  0
   22.0725   21.6094   30.8888 C   0  0  0  0  0  0  0  0  0  0  0  0
   22.3596   19.4689   32.0137 C   0  0  0  0  0  0  0  0  0  0  0  0
   22.6520   17.9139   38.8361 C   0  0  0  0  0  0  0  0  0  0  0  0
   22.6801   19.2507   35.4304 C   0  0  0  0  0  0  0  0  0  0  0  0
   22.6524   22.2292   32.0070 C   0  0  0  0  0  0  0  0  0  0  0  0
   22.9409   20.0819   33.1163 C   0  0  0  0  0  0  0  0  0  0  0  0
   22.9551   23.0886   35.0003 C   0  0  0  0  0  0  0  0  0  0  0  0
   23.0981   18.5994   36.5872 C   0  0  0  0  0  0  0  0  0  0  0  0
   23.0169   21.4806   33.1206 C   0  0  0  0  0  0  0  0  0  0  0  0
   23.4736   19.3088   34.2877 C   0  0  0  0  0  0  0  0  0  0  0  0
   23.8685   17.2257   38.8718 C   0  0  0  0  0  0  0  0  0  0  0  0
   24.3466   17.9162   36.5739 C   0  0  0  0  0  0  0  0  0  0  0  0
   24.7569   17.2458   37.7599 C   0  0  0  0  0  0  0  0  0  0  0  0
   24.7479   18.6794   34.2673 C   0  0  0  0  0  0  0  0  0  0  0  0
   25.2033   17.9441   35.4197 C   0  0  0  0  0  0  0  0  0  0  0  0
   25.6809   18.8944   33.0926 C   0  0  0  0  0  0  0  0  0  0  0  0
   26.1896   17.8846   32.3683 C   0  0  0  0  0  0  0  0  0  0  0  0
   26.0464   20.1519   32.7540 C   0  0  0  0  0  0  0  0  0  0  0  0
   26.6703   20.4325   31.5823 C   0  0  0  0  0  0  0  0  0  0  0  0
   26.9709   18.1633   31.2234 C   0  0  0  0  0  0  0  0  0  0  0  0
   27.1596   19.4350   30.7373 C   0  0  0  0  0  0  0  0  0  0  0  0
   21.7514   22.3862   29.8044 O   0  0  0  0  0  0  0  0  0  0  0  0
   24.6510   22.3016   34.9095 O   0  0  0  0  0  0  0  0  0  0  0  0
   22.3222   18.6036   37.7393 N   0  0  0  0  0  0  0  0  0  0  0  0
   23.4931   22.1705   34.2572 N   0  0  0  0  0  0  0  0  0  0  0  0
   24.7142   23.4180   35.6713 N   0  0  0  0  0  0  0  0  0  0  0  0
  1  2  1  0
  1  3  1  0
  2  6  2  0
  2 23  1  0
  3  7  2  0
  4 12  2  0
  4 25  1  0
  5  9  1  0
  5 11  2  0
  6 10  1  0
  7 10  1  0
  7 11  1  0
  8 26  1  0
  9 13  1  0
  9 25  2  0
 10 26  1  0
 11 15  1  0
 12 14  1  0
 13 14  2  0
 13 16  1  0
 15 16  2  0
 15 17  1  0
 17 18  2  0
 17 19  1  0
 18 21  1  0
 19 20  2  0
 20 22  1  0
 21 22  1  0
 24 26  1  0
 24 27  1  0
M  END
$$$$

     RDKit          3D

 32 36  0  0  0  0  0  0  0  0999 V2000
   21.8394   23.8948   36.3292 C   0  0  0  0  0  0  0  0  0  0  0  0
   22.1802   18.6517   37.4721 C   0  0  0  0  0  0  0  0  0  0  0  0
   22.0739   23.0482   35.2700 C   0  0  0  0  0  0  0  0  0  0  0  0
   22.9238   18.2434   38.5089 C   0  0  0  0  0  0  0  0  0  0  0  0
   22.7125   19.1964   36.3631 C   0  0  0  0  0  0  0  0  0  0  0  0
   22.9090   24.4401   36.9906 C   0  0  0  0  0  0  0  0  0  0  0  0
   23.0840   20.6113   32.0699 C   0  0  0  0  0  0  0  0  0  0  0  0
   23.1022   26.3191   38.4887 C   0  0  0  0  0  0  0  0  0  0  0  0
   23.4492   21.6396   33.9401 C   0  0  0  0  0  0  0  0  0  0  0  0
   23.3647   22.6842   34.9204 C   0  0  0  0  0  0  0  0  0  0  0  0
   23.9552   19.8179   32.8447 C   0  0  1  0  0  0  0  0  0  0  0  0
   24.1870   17.3608   32.9919 C   0  0  0  0  0  0  0  0  0  0  0  0
   24.0941   19.3693   36.2613 C   0  0  0  0  0  0  0  0  0  0  0  0
   24.2557   24.2067   36.5736 C   0  0  0  0  0  0  0  0  0  0  0  0
   24.6560   18.5977   32.4660 C   0  0  0  0  0  0  0  0  0  0  0  0
   24.4766   23.3403   35.4864 C   0  0  0  0  0  0  0  0  0  0  0  0
   24.8041   16.1346   32.7276 C   0  0  0  0  0  0  0  0  0  0  0  0
   24.8245   18.8538   37.3283 C   0  0  0  0  0  0  0  0  0  0  0  0
   24.7682   20.0291   35.2058 C   0  0  0  0  0  0  0  0  0  0  0  0
   25.9234   16.1056   31.8488 C   0  0  0  0  0  0  0  0  0  0  0  0
   25.7784   18.5096   31.5981 C   0  0  0  0  0  0  0  0  0  0  0  0
   26.1321   20.2496   35.3415 C   0  0  0  0  0  0  0  0  0  0  0  0
   26.3494   17.2710   31.2751 C   0  0  0  0  0  0  0  0  0  0  0  0
   26.2273   19.0104   37.3526 C   0  0  0  0  0  0  0  0  0  0  0  0
   26.4064   19.7460   31.0773 C   0  0  0  0  0  0  0  0  0  0  0  0
   26.8721   19.7451   36.4177 C   0  0  0  0  0  0  0  0  0  0  0  0
   27.5393   19.6787   30.1798 C   0  0  0  0  0  0  0  0  0  0  0  0
   22.5178   20.3762   30.8925 O   0  0  0  0  0  0  0  0  0  0  0  0
   22.6415   25.1275   38.1316 O   0  0  0  0  0  0  0  0  0  0  0  0
   24.0828   18.3015   38.3177 O   0  0  0  0  0  0  0  0  0  0  0  0
   22.7351   21.6863   32.8012 N   0  0  0  0  0  0  0  0  0  0  0  0
   24.1245   20.4403   34.0392 N   0  0  0  0  0  0  0  0  0  0  0  0
  1  3  2  0
  1  6  1  0
  2  4  1  0
  2  5  2  0
  3 10  1  0
  4 30  1  0
  5 13  1  0
  6 14  2  0
  6 29  1  0
  7 11  1  0
  7 28  2  0
  7 31  1  0
  8 29  1  0
  9 10  1  0
  9 31  2  0
  9 32  1  0
 10 16  2  0
 11 15  1  6
 11 32  1  0
 12 15  2  0
 12 17  1  0
 13 18  2  0
 13 19  1  0
 14 16  1  0
 15 21  1  0
 17 20  2  0
 18 24  1  0
 18 30  1  0
 19 22  2  0
 19 32  1  0
 20 23  1  0
 21 23  2  0
 21 25  1  0
 22 26  1  0
 24 26  2  0
 25 27  1  0
M  END
$$$$

     RDKit          3D

 18 19  0  0  0  0  0  0  0  0999 V2000
   21.1937   18.5901   30.5050 C   0  0  0  0  0  0  0  0  0  0  0  0
   22.6361   18.0178   29.5036 C   0  0  0  0  0  0  0  0  0  0  0  0
   22.5292   19.0982   30.4353 C   0  0  0  0  0  0  0  0  0  0  0  0
   22.5676   20.4546   29.7236 C   0  0  0  0  0  0  0  0  0  0  0  0
   22.9392   19.8064   32.8975 C   0  0  0  0  0  0  0  0  0  0  0  0
   23.2299   18.9507   31.8285 C   0  0  0  0  0  0  0  0  0  0  0  0
   23.5707   19.6325   34.1210 C   0  0  0  0  0  0  0  0  0  0  0  0
   24.2366   17.9750   31.9919 C   0  0  0  0  0  0  0  0  0  0  0  0
   24.4687   18.6222   34.3017 C   0  0  0  0  0  0  0  0  0  0  0  0
   24.7191   17.3415   36.3868 C   0  0  0  0  0  0  0  0  0  0  0  0
   24.8713   17.8177   33.2295 C   0  0  0  0  0  0  0  0  0  0  0  0
   25.1977   17.1579   37.6525 C   0  0  0  0  0  0  0  0  0  0  0  0
   25.0793   18.4256   35.6069 C   0  0  0  0  0  0  0  0  0  0  0  0
   26.2095   18.0354   38.1080 C   0  0  0  0  0  0  0  0  0  0  0  0
   26.0296   19.3150   36.0427 C   0  0  0  0  0  0  0  0  0  0  0  0
   26.6361   19.1427   37.3107 C   0  0  0  0  0  0  0  0  0  0  0  0
   22.0039   20.6580   28.5123 O   0  0  0  0  0  0  0  0  0  0  0  0
   22.4984   21.5535   30.4244 O   0  0  0  0  0  0  0  0  0  0  0  0
  1  3  1  0
  2  3  1  0
  3  4  1  0
  3  6  1  0
  4 17  2  0
  4 18  1  0
  5  6  2  0
  5  7  1  0
  6  8  1  0
  7  9  2  0
  8 11  2  0
  9 11  1  0
  9 13  1  0
 10 12  2  0
 10 13  1  0
 12 14  1  0
 13 15  2  0
 14 16  2  0
 15 16  1  0
M  END
$$$$

     RDKit          3D

 28 31  0  0  0  0  0  0  0  0999 V2000
   21.7428   17.4166   26.6512 C   0  0  0  0  0  0  0  0  0  0  0  0
   21.7325   17.6937   29.4242 C   0  0  0  0  0  0  0  0  0  0  0  0
   21.9293   18.2360   28.1507 C   0  0  0  0  0  0  0  0  0  0  0  0
   21.9310   18.5748   30.5138 C   0  0  0  0  0  0  0  0  0  0  0  0
   22.1733   22.1904   31.2971 C   0  0  0  0  0  0  0  0  0  0  0  0
   22.4037   19.5290   27.9397 C   0  0  0  0  0  0  0  0  0  0  0  0
   22.3420   19.8859   30.3364 C   0  0  0  0  0  0  0  0  0  0  0  0
   22.6203   20.3298   29.0653 C   0  0  0  0  0  0  0  0  0  0  0  0
   22.4662   20.8382   31.4166 C   0  0  1  0  0  0  0  0  0  0  0  0
   22.6225   22.7959   32.4582 C   0  0  0  0  0  0  0  0  0  0  0  0
   22.7331   24.1292   32.8329 C   0  0  0  0  0  0  0  0  0  0  0  0
   23.0624   21.7852   33.2892 C   0  0  0  0  0  0  0  0  0  0  0  0
   23.2972   24.4308   34.0652 C   0  0  0  0  0  0  0  0  0  0  0  0
   23.5715   22.0822   34.5623 C   0  0  2  0  0  0  0  0  0  0  0  0
   23.7127   23.4184   34.9358 C   0  0  0  0  0  0  0  0  0  0  0  0
   23.9797   20.9437   35.3978 C   0  0  0  0  0  0  0  0  0  0  0  0
   24.0957   23.8673   36.2760 C   0  0  0  0  0  0  0  0  0  0  0  0
   25.5836   19.6825   36.3672 C   0  0  0  0  0  0  0  0  0  0  0  0
   26.9679   19.3359   36.5860 C   0  0  0  0  0  0  0  0  0  0  0  0
   27.4527   18.9947   37.8422 C   0  0  0  0  0  0  0  0  0  0  0  0
   27.8483   19.3716   35.5297 C   0  0  0  0  0  0  0  0  0  0  0  0
   28.8149   18.7167   38.0882 C   0  0  0  0  0  0  0  0  0  0  0  0
   29.1995   19.1192   35.7645 C   0  0  0  0  0  0  0  0  0  0  0  0
   29.6838   18.8493   37.0243 C   0  0  0  0  0  0  0  0  0  0  0  0
   23.0028   20.3694   35.9482 O   0  0  0  0  0  0  0  0  0  0  0  0
   31.0283   18.6509   37.2024 O   0  0  0  0  0  0  0  0  0  0  0  0
   22.9968   20.5981   32.6113 N   0  0  0  0  0  0  0  0  0  0  0  0
   25.2379   20.6886   35.5870 N   0  0  0  0  0  0  0  0  0  0  0  0
  1  3  1  0
  2  3  2  0
  2  4  1  0
  3  6  1  0
  4  7  2  0
  5  9  1  0
  5 10  1  0
  6  8  2  0
  7  8  1  0
  9  7  1  6
  9 27  1  0
 10 11  1  0
 10 12  2  0
 11 13  1  0
 12 14  1  0
 12 27  1  0
 13 15  2  0
 14 15  1  0
 14 16  1  6
 15 17  1  0
 16 25  2  0
 16 28  1  0
 18 19  1  0
 18 28  1  0
 19 20  2  0
 19 21  1  0
 20 22  1  0
 21 23  2  0
 22 24  2  0
 23 24  1  0
 24 26  1  0
M  END
$$$$

     RDKit          3D

 29 32  0  0  0  0  0  0  0  0999 V2000
   21.8538   20.4267   30.3346 C   0  0  0  0  0  0  0  0  0  0  0  0
   21.7102   21.6791   30.6227 C   0  0  0  0  0  0  0  0  0  0  0  0
   21.9639   22.2007   31.9381 C   0  0  0  0  0  0  0  0  0  0  0  0
   22.6641   19.5490   31.0730 C   0  0  0  0  0  0  0  0  0  0  0  0
   22.5718   22.8577   36.1155 C   0  0  0  0  0  0  0  0  0  0  0  0
   22.7843   21.3054   32.7626 C   0  0  1  0  0  0  0  0  0  0  0  0
   22.8552   24.1447   36.8589 C   0  0  0  0  0  0  0  0  0  0  0  0
   23.1968   20.0674   32.2536 C   0  0  0  0  0  0  0  0  0  0  0  0
   23.1716   21.7898   34.0048 C   0  0  0  0  0  0  0  0  0  0  0  0
   24.1852   19.4045   33.0413 C   0  0  0  0  0  0  0  0  0  0  0  0
   24.5071   16.8832   33.2251 C   0  0  0  0  0  0  0  0  0  0  0  0
   24.6277   20.0190   34.1855 C   0  0  0  0  0  0  0  0  0  0  0  0
   24.8243   18.1161   32.6297 C   0  0  0  0  0  0  0  0  0  0  0  0
   25.1177   15.7147   32.7379 C   0  0  0  0  0  0  0  0  0  0  0  0
   25.4402   18.7818   36.1001 C   0  0  0  0  0  0  0  0  0  0  0  0
   25.6995   19.5913   35.0249 C   0  0  0  0  0  0  0  0  0  0  0  0
   25.7193   18.1803   31.5867 C   0  0  0  0  0  0  0  0  0  0  0  0
   25.9885   15.7943   31.6536 C   0  0  0  0  0  0  0  0  0  0  0  0
   26.3029   17.0234   31.1098 C   0  0  0  0  0  0  0  0  0  0  0  0
   26.4279   18.5130   37.0292 C   0  0  0  0  0  0  0  0  0  0  0  0
   27.0117   20.0723   34.7655 C   0  0  0  0  0  0  0  0  0  0  0  0
   27.7305   19.0297   36.8352 C   0  0  0  0  0  0  0  0  0  0  0  0
   28.0203   19.7742   35.6811 C   0  0  0  0  0  0  0  0  0  0  0  0
   21.9094   24.5343   37.5954 O   0  0  0  0  0  0  0  0  0  0  0  0
   22.0040   21.9627   36.7507 O   0  0  0  0  0  0  0  0  0  0  0  0
   24.0985   24.4787   37.0506 O   0  0  0  0  0  0  0  0  0  0  0  0
   22.6528   22.8670   34.6981 N   0  0  0  0  0  0  0  0  0  0  0  0
   24.1860   21.2326   34.5471 N   0  0  0  0  0  0  0  0  0  0  0  0
   28.9180   18.5184   37.9803 Cl  0  0  0  0  0  0  0  0  0  0  0  0
  1  2  1  0
  1  4  2  0
  2  3  1  0
  6  3  1  6
  4  8  1  0
  5  7  1  0
  5 25  2  0
  5 27  1  0
  6  8  1  0
  6  9  1  0
  7 24  2  0
  7 26  1  0
  8 10  2  0
  9 27  2  3
  9 28  1  0
 10 12  1  0
 10 13  1  0
 11 13  2  0
 11 14  1  0
 12 16  1  0
 12 28  2  0
 13 17  1  0
 14 18  2  0
 15 16  2  0
 15 20  1  0
 16 21  1  0
 17 19  2  0
 18 19  1  0
 20 22  2  0
 21 23  2  0
 22 23  1  0
 22 29  1  0
M  END
$$$$

     RDKit          3D

 24 27  0  0  0  0  0  0  0  0999 V2000
   22.5181   20.4060   32.3155 C   0  0  0  0  0  0  0  0  0  0  0  0
   22.7757   19.5810   33.4146 C   0  0  0  0  0  0  0  0  0  0  0  0
   22.9250   21.7118   32.3336 C   0  0  0  0  0  0  0  0  0  0  0  0
   22.9694   18.9930   36.7296 C   0  0  0  0  0  0  0  0  0  0  0  0
   23.4244   20.1152   34.5256 C   0  0  0  0  0  0  0  0  0  0  0  0
   23.6001   22.2753   33.4431 C   0  0  0  0  0  0  0  0  0  0  0  0
   23.7552   19.1766   35.5583 C   0  0  0  0  0  0  0  0  0  0  0  0
   23.8400   21.4485   34.5520 C   0  0  0  0  0  0  0  0  0  0  0  0
   24.5299   17.4340   37.5622 C   0  0  0  0  0  0  0  0  0  0  0  0
   24.9002   16.5144   38.6607 C   0  0  0  0  0  0  0  0  0  0  0  0
   24.9239   18.3968   35.3823 C   0  0  0  0  0  0  0  0  0  0  0  0
   25.2898   16.1027   33.2764 C   0  0  0  0  0  0  0  0  0  0  0  0
   25.3242   17.5384   36.4370 C   0  0  0  0  0  0  0  0  0  0  0  0
   25.5650   15.2501   32.2062 C   0  0  0  0  0  0  0  0  0  0  0  0
   25.7351   17.4001   33.2294 C   0  0  0  0  0  0  0  0  0  0  0  0
   26.3348   17.8690   32.0705 C   0  0  0  0  0  0  0  0  0  0  0  0
   26.4093   19.4470   33.6291 C   0  0  0  0  0  0  0  0  0  0  0  0
   26.4711   16.9827   30.9293 C   0  0  0  0  0  0  0  0  0  0  0  0
   21.8672   19.5462   36.8866 O   0  0  0  0  0  0  0  0  0  0  0  0
   23.3618   18.1376   37.7055 N   0  0  0  0  0  0  0  0  0  0  0  0
   25.6416   18.4163   34.1397 N   0  0  0  0  0  0  0  0  0  0  0  0
   26.0977   15.7063   31.0743 N   0  0  0  0  0  0  0  0  0  0  0  0
   26.7821   19.1342   32.3391 N   0  0  0  0  0  0  0  0  0  0  0  0
   21.4595   19.9070   31.0238 Cl  0  0  0  0  0  0  0  0  0  0  0  0
  1  2  2  0
  1  3  1  0
  1 24  1  0
  2  5  1  0
  3  6  2  0
  4  7  1  0
  4 19  2  0
  4 20  1  0
  5  7  1  0
  5  8  2  0
  6  8  1  0
  7 11  1  0
  9 10  1  0
  9 13  1  0
  9 20  2  0
 11 13  2  0
 11 21  1  0
 12 14  2  0
 12 15  1  0
 14 22  1  0
 15 16  2  0
 15 21  1  0
 16 18  1  0
 16 23  1  0
 17 21  1  0
 17 23  1  0
 18 22  2  0
M  END
$$$$

     RDKit          3D

 28 31  0  0  0  0  0  0  0  0999 V2000
   21.5196   18.1597   29.4368 C   0  0  0  0  0  0  0  0  0  0  0  0
   21.8914   18.9708   30.4973 C   0  0  0  0  0  0  0  0  0  0  0  0
   21.9687   18.4327   28.1502 C   0  0  0  0  0  0  0  0  0  0  0  0
   22.4079   21.9464   32.0289 C   0  0  0  0  0  0  0  0  0  0  0  0
   22.8283   19.5329   27.9197 C   0  0  0  0  0  0  0  0  0  0  0  0
   22.7342   20.1030   30.2704 C   0  0  0  0  0  0  0  0  0  0  0  0
   22.7950   23.4336   34.0787 C   0  0  0  0  0  0  0  0  0  0  0  0
   23.1320   20.9415   31.3954 C   0  0  2  0  0  0  0  0  0  0  0  0
   23.0774   22.2393   33.2024 C   0  0  2  0  0  0  0  0  0  0  0  0
   23.2176   20.3340   28.9776 C   0  0  0  0  0  0  0  0  0  0  0  0
   24.0643   19.9264   35.4977 C   0  0  0  0  0  0  0  0  0  0  0  0
   24.0692   21.2753   33.3643 C   0  0  1  0  0  0  0  0  0  0  0  0
   24.7254   19.2494   36.5516 C   0  0  0  0  0  0  0  0  0  0  0  0
   24.7582   20.7112   34.5773 C   0  0  0  0  0  0  0  0  0  0  0  0
   25.1809   18.4548   31.6720 C   0  0  0  0  0  0  0  0  0  0  0  0
   25.2720   19.8441   31.5650 C   0  0  0  0  0  0  0  0  0  0  0  0
   26.1451   17.6080   31.1543 C   0  0  0  0  0  0  0  0  0  0  0  0
   26.0909   19.3806   36.7622 C   0  0  0  0  0  0  0  0  0  0  0  0
   26.1049   20.9554   34.8146 C   0  0  0  0  0  0  0  0  0  0  0  0
   26.4276   20.3699   30.9588 C   0  0  0  0  0  0  0  0  0  0  0  0
   26.7136   18.5441   37.9079 C   0  0  0  0  0  0  0  0  0  0  0  0
   26.8077   20.2425   35.9020 C   0  0  0  0  0  0  0  0  0  0  0  0
   27.2810   18.1482   30.5584 C   0  0  0  0  0  0  0  0  0  0  0  0
   27.4315   19.5008   30.4441 C   0  0  0  0  0  0  0  0  0  0  0  0
   21.6125   23.8577   34.2587 O   0  0  0  0  0  0  0  0  0  0  0  0
   23.8015   24.1201   34.5162 O   0  0  0  0  0  0  0  0  0  0  0  0
   24.2251   20.6605   32.1075 N   0  0  0  0  0  0  0  0  0  0  0  0
   23.9010   17.6687   32.3330 Cl  0  0  0  0  0  0  0  0  0  0  0  0
  1  2  2  0
  1  3  1  0
  2  6  1  0
  3  5  1  0
  4  8  1  0
  4  9  1  0
  5 10  2  0
  8  6  1  1
  6 10  1  0
  9  7  1  6
  7 25  2  0
  7 26  1  0
  8 27  1  0
  9 12  1  0
 11 13  1  0
 11 14  1  0
 12 14  1  1
 12 27  1  0
 13 18  2  0
 14 19  2  0
 15 16  2  0
 15 17  1  0
 15 28  1  0
 16 20  1  0
 16 27  1  0
 17 23  2  0
 18 21  1  0
 18 22  1  0
 19 22  1  0
 20 24  2  0
 23 24  1  0
M  END
$$$$

     RDKit          3D

 28 30  0  0  0  0  0  0  0  0999 V2000
   21.1742   17.8575   29.5828 C   0  0  0  0  0  0  0  0  0  0  0  0
   21.5338   19.0049   30.6321 C   0  0  0  0  0  0  0  0  0  0  0  0
   22.1829   23.2667   36.3953 C   0  0  0  0  0  0  0  0  0  0  0  0
   22.5172   23.6644   34.9177 C   0  0  0  0  0  0  0  0  0  0  0  0
   23.0706   19.1680   30.4261 C   0  0  0  0  0  0  0  0  0  0  0  0
   23.0925   22.1627   32.7583 C   0  0  0  0  0  0  0  0  0  0  0  0
   23.0131   22.3557   34.2227 C   0  0  1  0  0  0  0  0  0  0  0  0
   23.6132   20.5474   30.8316 C   0  0  0  0  0  0  0  0  0  0  0  0
   23.7170   20.9061   32.3059 C   0  0  2  0  0  0  0  0  0  0  0  0
   23.9873   19.8762   33.3903 C   0  0  2  0  0  0  0  0  0  0  0  0
   24.0616   20.3720   34.8329 C   0  0  1  0  0  0  0  0  0  0  0  0
   24.3413   17.4351   33.3786 C   0  0  0  0  0  0  0  0  0  0  0  0
   24.3940   18.6729   36.6939 C   0  0  0  0  0  0  0  0  0  0  0  0
   24.7778   18.6874   32.9820 C   0  0  0  0  0  0  0  0  0  0  0  0
   24.9270   19.6980   35.8917 C   0  0  0  0  0  0  0  0  0  0  0  0
   24.9749   16.2968   32.9087 C   0  0  0  0  0  0  0  0  0  0  0  0
   25.1916   18.0477   37.6738 C   0  0  0  0  0  0  0  0  0  0  0  0
   25.8563   18.8272   32.1076 C   0  0  0  0  0  0  0  0  0  0  0  0
   26.0178   16.3837   31.9624 C   0  0  0  0  0  0  0  0  0  0  0  0
   26.2269   20.1067   36.0696 C   0  0  0  0  0  0  0  0  0  0  0  0
   26.4600   17.6535   31.5694 C   0  0  0  0  0  0  0  0  0  0  0  0
   26.5431   18.4660   37.8432 C   0  0  0  0  0  0  0  0  0  0  0  0
   26.9998   19.5039   37.0507 C   0  0  0  0  0  0  0  0  0  0  0  0
   21.8854   24.1634   37.2451 O   0  0  0  0  0  0  0  0  0  0  0  0
   22.1643   22.0926   36.7789 O   0  0  0  0  0  0  0  0  0  0  0  0
   22.4879   22.9337   31.9374 O   0  0  0  0  0  0  0  0  0  0  0  0
   24.1677   21.8071   34.8744 O   0  0  0  0  0  0  0  0  0  0  0  0
   26.4394   14.9954   31.3106 Cl  0  0  0  0  0  0  0  0  0  0  0  0
  1  2  1  0
  2  5  1  0
  3  4  1  0
  3 24  2  0
  3 25  1  0
  7  4  1  6
  5  8  1  0
  6  7  1  0
  6  9  1  0
  6 26  2  0
  7 27  1  0
  9  8  1  6
  9 10  1  0
 10 11  1  0
 10 14  1  6
 11 15  1  6
 11 27  1  0
 12 14  2  0
 12 16  1  0
 13 15  2  0
 13 17  1  0
 14 18  1  0
 15 20  1  0
 16 19  2  0
 17 22  2  0
 18 21  2  0
 19 21  1  0
 19 28  1  0
 20 23  2  0
 22 23  1  0
M  END
$$$$

     RDKit          3D

 21 24  0  0  0  0  0  0  0  0999 V2000
   21.8725   23.2370   31.2415 C   0  0  0  0  0  0  0  0  0  0  0  0
   22.1629   24.5329   31.7053 C   0  0  0  0  0  0  0  0  0  0  0  0
   22.2809   22.1629   32.0298 C   0  0  0  0  0  0  0  0  0  0  0  0
   22.8093   19.2620   37.0400 C   0  0  0  0  0  0  0  0  0  0  0  0
   22.9543   24.7445   32.8521 C   0  0  0  0  0  0  0  0  0  0  0  0
   23.0678   19.8394   35.7929 C   0  0  0  0  0  0  0  0  0  0  0  0
   23.2064   21.1670   34.0597 C   0  0  1  0  0  0  0  0  0  0  0  0
   22.9984   22.3654   33.2081 C   0  0  0  0  0  0  0  0  0  0  0  0
   23.3541   23.6586   33.5898 C   0  0  0  0  0  0  0  0  0  0  0  0
   23.6393   18.2488   37.4865 C   0  0  0  0  0  0  0  0  0  0  0  0
   24.0955   19.3912   34.9987 C   0  0  0  0  0  0  0  0  0  0  0  0
   24.4426   18.7573   31.9205 C   0  0  0  0  0  0  0  0  0  0  0  0
   24.7129   17.7950   36.7120 C   0  0  0  0  0  0  0  0  0  0  0  0
   24.9406   18.3481   35.4402 C   0  0  0  0  0  0  0  0  0  0  0  0
   24.8144   19.7982   32.7151 C   0  0  0  0  0  0  0  0  0  0  0  0
   25.2774   18.3476   30.9027 C   0  0  0  0  0  0  0  0  0  0  0  0
   25.9805   20.4767   32.5309 C   0  0  0  0  0  0  0  0  0  0  0  0
   26.4899   18.9980   30.7224 C   0  0  0  0  0  0  0  0  0  0  0  0
   26.8102   20.0815   31.5080 C   0  0  0  0  0  0  0  0  0  0  0  0
   22.4550   20.8440   35.1232 O   0  0  0  0  0  0  0  0  0  0  0  0
   24.0444   20.1495   33.8754 N   0  0  0  0  0  0  0  0  0  0  0  0
  1  2  2  0
  1  3  1  0
  2  5  1  0
  3  8  2  0
  4  6  2  0
  4 10  1  0
  5  9  2  0
  6 11  1  0
  6 20  1  0
  7  8  1  6
  7 20  1  0
  7 21  1  0
  8  9  1  0
 10 13  2  0
 11 14  2  0
 11 21  1  0
 12 15  2  0
 12 16  1  0
 13 14  1  0
 15 17  1  0
 15 21  1  0
 16 18  2  0
 17 19  2  0
 18 19  1  0
M  END
$$$$

     RDKit          3D

 33 37  0  0  0  0  0  0  0  0999 V2000
   21.1265   17.8872   29.3928 C   0  0  0  0  0  0  0  0  0  0  0  0
   21.4676   18.6589   30.4634 C   0  0  0  0  0  0  0  0  0  0  0  0
   21.7926   18.1120   28.1685 C   0  0  0  0  0  0  0  0  0  0  0  0
   22.1211   22.9287   35.6494 C   0  0  0  0  0  0  0  0  0  0  0  0
   22.0320   23.8437   36.6965 C   0  0  0  0  0  0  0  0  0  0  0  0
   22.2821   21.6411   31.6135 C   0  0  0  0  0  0  0  0  0  0  0  0
   22.6823   19.1733   28.0240 C   0  0  0  0  0  0  0  0  0  0  0  0
   22.4905   19.6033   30.3711 C   0  0  0  0  0  0  0  0  0  0  0  0
   22.5168   22.4131   32.7177 C   0  0  0  0  0  0  0  0  0  0  0  0
   22.8889   20.4028   31.5024 C   0  0  0  0  0  0  0  0  0  0  0  0
   23.0273   19.9161   29.1390 C   0  0  0  0  0  0  0  0  0  0  0  0
   23.1669   24.5227   37.1008 C   0  0  0  0  0  0  0  0  0  0  0  0
   23.0143   25.5501   38.1549 C   0  0  0  0  0  0  0  0  0  0  0  0
   23.2882   21.9314   33.7672 C   0  0  0  0  0  0  0  0  0  0  0  0
   23.3085   22.8024   34.9498 C   0  0  0  0  0  0  0  0  0  0  0  0
   23.5659   28.2054   38.7648 C   0  0  0  0  0  0  0  0  0  0  0  0
   23.8147   19.9146   32.4795 C   0  0  0  0  0  0  0  0  0  0  0  0
   24.1335   19.6068   35.8070 C   0  0  0  0  0  0  0  0  0  0  0  0
   23.9973   20.7110   33.6684 C   0  0  0  0  0  0  0  0  0  0  0  0
   24.3454   17.5046   32.9118 C   0  0  0  0  0  0  0  0  0  0  0  0
   24.3654   24.3028   36.4388 C   0  0  0  0  0  0  0  0  0  0  0  0
   24.6046   18.6966   32.2389 C   0  0  0  0  0  0  0  0  0  0  0  0
   24.5040   23.4469   35.3431 C   0  0  0  0  0  0  0  0  0  0  0  0
   25.0706   16.3724   32.6047 C   0  0  0  0  0  0  0  0  0  0  0  0
   25.0813   19.1806   36.8281 C   0  0  0  0  0  0  0  0  0  0  0  0
   25.6231   18.7292   31.3166 C   0  0  0  0  0  0  0  0  0  0  0  0
   26.0362   16.4042   31.5819 C   0  0  0  0  0  0  0  0  0  0  0  0
   26.1630   20.2426   34.7641 C   0  0  0  0  0  0  0  0  0  0  0  0
   26.3620   17.6019   30.9477 C   0  0  0  0  0  0  0  0  0  0  0  0
   26.4314   19.5282   36.1267 C   0  0  0  0  0  0  0  0  0  0  0  0
   22.1715   25.3844   39.0079 O   0  0  0  0  0  0  0  0  0  0  0  0
   23.7714   26.5296   38.1331 O   0  0  0  0  0  0  0  0  0  0  0  0
   24.7431   20.2245   34.7303 N   0  0  0  0  0  0  0  0  0  0  0  0
  1  2  2  0
  1  3  1  0
  2  8  1  0
  3  7  2  0
  4  5  2  0
  4 15  1  0
  5 12  1  0
  6  9  2  0
  6 10  1  0
  7 11  1  0
  8 10  1  0
  8 11  2  0
  9 14  1  0
 10 17  2  0
 12 13  1  0
 12 21  2  0
 13 31  2  0
 13 32  1  0
 14 15  1  0
 14 19  2  0
 15 23  1  0
 16 32  1  0
 17 19  1  0
 17 22  1  0
 18 25  1  0
 18 33  1  0
 19 33  1  0
 20 22  2  0
 20 24  1  0
 21 23  1  0
 22 26  1  0
 24 27  2  0
 25 30  1  0
 26 29  2  0
 27 29  1  0
 28 30  1  0
 28 33  1  0
M  END
$$$$

     RDKit          3D

 31 33  0  0  0  0  0  0  0  0999 V2000
   22.1691   21.1676   31.2891 C   0  0  0  0  0  0  0  0  0  0  0  0
   22.3412   22.6463   36.4047 C   0  0  0  0  0  0  0  0  0  0  0  0
   22.5928   21.4749   35.6448 C   0  0  0  0  0  0  0  0  0  0  0  0
   23.4364   23.5535   36.5791 C   0  0  0  0  0  0  0  0  0  0  0  0
   23.8340   20.1012   32.8668 C   0  0  0  0  0  0  0  0  0  0  0  0
   23.8472   21.2646   35.1181 C   0  0  0  0  0  0  0  0  0  0  0  0
   24.1278   20.1660   34.2313 C   0  0  0  0  0  0  0  0  0  0  0  0
   24.2780   18.3486   31.0323 C   0  0  2  0  0  0  0  0  0  0  0  0
   24.2884   18.8229   32.4556 C   0  0  0  0  0  0  0  0  0  0  0  0
   24.6909   23.3263   36.1003 C   0  0  0  0  0  0  0  0  0  0  0  0
   24.7187   18.9337   34.6570 C   0  0  0  0  0  0  0  0  0  0  0  0
   24.7539   19.4077   30.0315 C   0  0  0  0  0  0  0  0  0  0  0  0
   24.8781   22.1842   35.3191 C   0  0  0  0  0  0  0  0  0  0  0  0
   25.0830   16.6571   33.7068 C   0  0  0  0  0  0  0  0  0  0  0  0
   25.1963   18.6458   36.0203 C   0  0  0  0  0  0  0  0  0  0  0  0
   25.8556   20.3031   30.6292 C   0  0  0  0  0  0  0  0  0  0  0  0
   26.5577   18.8750   36.4654 C   0  0  0  0  0  0  0  0  0  0  0  0
   26.8321   18.6910   37.8587 C   0  0  0  0  0  0  0  0  0  0  0  0
   27.1173   19.6593   30.9242 C   0  0  0  0  0  0  0  0  0  0  0  0
   27.1626   20.6083   29.8153 C   0  0  0  0  0  0  0  0  0  0  0  0
   27.6552   19.1272   35.6088 C   0  0  0  0  0  0  0  0  0  0  0  0
   28.1521   18.7343   38.3592 C   0  0  0  0  0  0  0  0  0  0  0  0
   28.9708   19.1265   36.1169 C   0  0  0  0  0  0  0  0  0  0  0  0
   29.2136   18.9138   37.4534 C   0  0  0  0  0  0  0  0  0  0  0  0
   21.3406   20.2041   31.1764 O   0  0  0  0  0  0  0  0  0  0  0  0
   22.0198   22.2250   30.5091 O   0  0  0  0  0  0  0  0  0  0  0  0
   22.9292   18.0552   30.6360 O   0  0  0  0  0  0  0  0  0  0  0  0
   24.4169   18.1381   36.7997 O   0  0  0  0  0  0  0  0  0  0  0  0
   23.2701   21.1717   32.1666 N   0  0  0  0  0  0  0  0  0  0  0  0
   24.7438   18.1006   33.5761 N   0  0  0  0  0  0  0  0  0  0  0  0
   30.8907   18.9868   37.8434 Cl  0  0  0  0  0  0  0  0  0  0  0  0
  1 25  2  0
  1 26  1  0
  1 29  1  0
  2  3  1  0
  2  4  1  0
  3  6  2  0
  4 10  2  0
  5  7  1  0
  5  9  2  0
  5 29  1  0
  6  7  1  0
  6 13  1  0
  7 11  2  0
  8  9  1  0
  8 12  1  0
  8 27  1  6
  9 30  1  0
 10 13  1  0
 11 15  1  0
 11 30  1  0
 12 16  1  0
 14 30  1  0
 15 17  1  0
 15 28  2  0
 16 19  1  0
 17 18  2  0
 17 21  1  0
 18 22  1  0
 19 20  1  0
 21 23  2  0
 22 24  2  0
 23 24  1  0
 24 31  1  0
M  END
$$$$

     RDKit          3D

 25 27  0  0  0  0  0  0  0  0999 V2000
   22.3729   23.9738   32.6375 C   0  0  0  0  0  0  0  0  0  0  0  0
   22.2838   25.1488   33.3970 C   0  0  0  0  0  0  0  0  0  0  0  0
   22.5547   21.7053   30.9741 C   0  0  0  0  0  0  0  0  0  0  0  0
   22.9496   21.5761   32.3372 C   0  0  2  0  0  0  0  0  0  0  0  0
   22.9514   22.7881   33.1845 C   0  0  0  0  0  0  0  0  0  0  0  0
   23.3037   19.6066   36.1350 C   0  0  0  0  0  0  0  0  0  0  0  0
   23.4282   24.0763   35.1627 C   0  0  0  0  0  0  0  0  0  0  0  0
   23.5343   20.3316   32.6548 C   0  0  0  0  0  0  0  0  0  0  0  0
   23.5653   22.8599   34.4541 C   0  0  0  0  0  0  0  0  0  0  0  0
   24.2668   21.6717   35.0618 C   0  0  1  0  0  0  0  0  0  0  0  0
   24.5407   18.8059   36.3182 C   0  0  0  0  0  0  0  0  0  0  0  0
   25.3478   21.1872   36.0001 C   0  0  0  0  0  0  0  0  0  0  0  0
   25.6678   19.7049   35.8308 C   0  0  2  0  0  0  0  0  0  0  0  0
   25.8550   19.4330   34.2678 C   0  0  0  0  0  0  0  0  0  0  0  0
   26.9585   19.3098   36.5201 C   0  0  0  0  0  0  0  0  0  0  0  0
   27.1836   19.0307   37.9164 C   0  0  0  0  0  0  0  0  0  0  0  0
   28.0487   19.3462   35.6622 C   0  0  0  0  0  0  0  0  0  0  0  0
   28.4977   18.7462   38.3781 C   0  0  0  0  0  0  0  0  0  0  0  0
   29.3477   19.1049   36.1153 C   0  0  0  0  0  0  0  0  0  0  0  0
   29.5690   18.7923   37.4534 C   0  0  0  0  0  0  0  0  0  0  0  0
   23.6615   19.2096   37.2962 O   0  0  0  0  0  0  0  0  0  0  0  0
   24.5667   17.5915   36.3513 O   0  0  0  0  0  0  0  0  0  0  0  0
   22.8077   25.1891   34.6499 N   0  0  0  0  0  0  0  0  0  0  0  0
   23.2676   20.8258   35.6421 N   0  0  0  0  0  0  0  0  0  0  0  0
   23.7645   19.5859   31.3971 N   0  0  0  0  0  0  0  0  0  0  0  0
  1  2  2  0
  1  5  1  0
  2 23  1  0
  4  3  1  6
  4  5  1  0
  4  8  1  0
  5  9  2  0
  6 21  1  0
  6 24  1  0
  7  9  1  0
  7 23  2  0
  8 25  1  0
 10  9  1  1
 10 12  1  0
 10 24  1  0
 11 13  1  0
 11 21  1  0
 11 22  2  0
 12 13  1  0
 13 14  1  6
 13 15  1  0
 15 16  2  0
 15 17  1  0
 16 18  1  0
 17 19  2  0
 18 20  2  0
 19 20  1  0
M  END
$$$$

     RDKit          3D

 23 26  0  0  0  0  0  0  0  0999 V2000
   21.3398   19.4171   30.0306 C   0  0  0  0  0  0  0  0  0  0  0  0
   21.4005   20.7596   29.6102 C   0  0  0  0  0  0  0  0  0  0  0  0
   21.8273   18.9929   31.2539 C   0  0  0  0  0  0  0  0  0  0  0  0
   21.9422   21.7093   30.4862 C   0  0  0  0  0  0  0  0  0  0  0  0
   22.0864   19.2503   37.6416 C   0  0  0  0  0  0  0  0  0  0  0  0
   22.3099   19.9844   32.1299 C   0  0  0  0  0  0  0  0  0  0  0  0
   22.3357   20.1575   36.6260 C   0  0  0  0  0  0  0  0  0  0  0  0
   22.4253   21.2877   31.7397 C   0  0  0  0  0  0  0  0  0  0  0  0
   23.2272   21.0508   33.7106 C   0  0  0  0  0  0  0  0  0  0  0  0
   23.5941   20.3324   36.0874 C   0  0  0  0  0  0  0  0  0  0  0  0
   23.8382   21.3878   35.0517 C   0  0  0  0  0  0  0  0  0  0  0  0
   24.2891   18.5822   37.5326 C   0  0  0  0  0  0  0  0  0  0  0  0
   24.5830   19.4329   36.4450 C   0  0  0  0  0  0  0  0  0  0  0  0
   25.3842   17.7297   34.1383 C   0  0  0  0  0  0  0  0  0  0  0  0
   25.4715   17.0691   32.9192 C   0  0  0  0  0  0  0  0  0  0  0  0
   25.9159   19.4713   35.7963 C   0  0  0  0  0  0  0  0  0  0  0  0
   26.0456   18.9216   34.3065 C   0  0  0  0  0  0  0  0  0  0  0  0
   26.2641   17.5663   31.9059 C   0  0  0  0  0  0  0  0  0  0  0  0
   26.9053   18.7590   32.0592 C   0  0  0  0  0  0  0  0  0  0  0  0
   26.7805   19.4606   33.2802 C   0  0  0  0  0  0  0  0  0  0  0  0
   22.7769   19.8732   33.3605 N   0  0  0  0  0  0  0  0  0  0  0  0
   23.0468   18.3967   37.9394 N   0  0  0  0  0  0  0  0  0  0  0  0
   23.0476   21.9707   32.7207 N   0  0  0  0  0  0  0  0  0  0  0  0
  1  2  2  0
  1  3  1  0
  2  4  1  0
  3  6  2  0
  4  8  2  0
  5  7  2  0
  5 22  1  0
  6  8  1  0
  6 21  1  0
  7 10  1  0
  8 23  1  0
  9 11  1  0
  9 21  2  0
  9 23  1  0
 10 11  1  0
 10 13  2  0
 12 13  1  0
 12 22  1  0
 13 16  1  0
 14 15  2  0
 14 17  1  0
 15 18  1  0
 16 17  1  0
 17 20  2  0
 18 19  2  0
 19 20  1  0
M  END
$$$$

     RDKit          3D

 29 32  0  0  0  0  0  0  0  0999 V2000
   21.5699   18.4399   29.1889 C   0  0  0  0  0  0  0  0  0  0  0  0
   21.9912   18.6745   30.5032 C   0  0  0  0  0  0  0  0  0  0  0  0
   22.2075   19.0466   28.1237 C   0  0  0  0  0  0  0  0  0  0  0  0
   22.7131   20.9148   32.8892 C   0  0  0  0  0  0  0  0  0  0  0  0
   22.7324   23.5388   34.5563 C   0  0  0  0  0  0  0  0  0  0  0  0
   23.0088   19.6036   30.7400 C   0  0  0  0  0  0  0  0  0  0  0  0
   22.9965   21.1298   34.2677 C   0  0  0  0  0  0  0  0  0  0  0  0
   23.3024   19.9127   28.3112 C   0  0  0  0  0  0  0  0  0  0  0  0
   23.3498   19.8216   32.2010 C   0  0  2  0  0  0  0  0  0  0  0  0
   23.7004   20.2080   29.6594 C   0  0  0  0  0  0  0  0  0  0  0  0
   23.8172   20.1864   34.9481 C   0  0  0  0  0  0  0  0  0  0  0  0
   24.3003   19.0958   34.2425 C   0  0  0  0  0  0  0  0  0  0  0  0
   24.7641   16.6161   33.1202 C   0  0  0  0  0  0  0  0  0  0  0  0
   24.9015   17.8288   32.4093 C   0  0  0  0  0  0  0  0  0  0  0  0
   24.9362   18.5219   37.5890 C   0  0  0  0  0  0  0  0  0  0  0  0
   25.1513   19.6820   36.8163 C   0  0  0  0  0  0  0  0  0  0  0  0
   25.4186   15.4610   32.6494 C   0  0  0  0  0  0  0  0  0  0  0  0
   25.7238   17.8609   31.2513 C   0  0  0  0  0  0  0  0  0  0  0  0
   26.1951   15.5116   31.4997 C   0  0  0  0  0  0  0  0  0  0  0  0
   26.0389   17.8758   38.1661 C   0  0  0  0  0  0  0  0  0  0  0  0
   26.3745   16.7156   30.8218 C   0  0  0  0  0  0  0  0  0  0  0  0
   26.4499   20.0894   36.4412 C   0  0  0  0  0  0  0  0  0  0  0  0
   27.3366   18.3843   37.8546 C   0  0  0  0  0  0  0  0  0  0  0  0
   27.5404   19.4208   36.9462 C   0  0  0  0  0  0  0  0  0  0  0  0
   23.4710   23.9275   33.6141 O   0  0  0  0  0  0  0  0  0  0  0  0
   22.1475   24.6015   35.2045 N   0  0  0  0  0  0  0  0  0  0  0  0
   22.4902   22.2138   34.9663 N   0  0  0  0  0  0  0  0  0  0  0  0
   24.1425   18.9342   32.9364 N   0  0  0  0  0  0  0  0  0  0  0  0
   24.0982   20.3833   36.2810 N   0  0  0  0  0  0  0  0  0  0  0  0
  1  2  2  0
  1  3  1  0
  2  6  1  0
  3  8  2  0
  4  7  2  0
  4  9  1  0
  5 25  2  0
  5 26  1  0
  5 27  1  0
  9  6  1  1
  6 10  2  0
  7 11  1  0
  7 27  1  0
  8 10  1  0
  9 28  1  0
 11 12  2  0
 11 29  1  0
 12 28  1  0
 13 14  2  0
 13 17  1  0
 14 18  1  0
 14 28  1  0
 15 16  2  0
 15 20  1  0
 16 22  1  0
 16 29  1  0
 17 19  2  0
 18 21  2  0
 19 21  1  0
 20 23  2  0
 22 24  2  0
 23 24  1  0
M  END
$$$$

     RDKit          3D

 27 30  0  0  0  0  0  0  0  0999 V2000
   22.2598   20.3736   32.0936 C   0  0  0  0  0  0  0  0  0  0  0  0
   22.7065   19.0747   36.7073 C   0  0  0  0  0  0  0  0  0  0  0  0
   22.6614   19.5290   33.1471 C   0  0  0  0  0  0  0  0  0  0  0  0
   22.4703   21.7930   32.1464 C   0  0  0  0  0  0  0  0  0  0  0  0
   23.1283   18.1940   37.8046 C   0  0  0  0  0  0  0  0  0  0  0  0
   23.0822   22.3085   33.3494 C   0  0  0  0  0  0  0  0  0  0  0  0
   23.2111   20.0566   34.3064 C   0  0  0  0  0  0  0  0  0  0  0  0
   23.4359   21.4093   34.3503 C   0  0  0  0  0  0  0  0  0  0  0  0
   23.3601   23.7589   33.5460 C   0  0  0  0  0  0  0  0  0  0  0  0
   23.5596   19.1710   35.4860 C   0  0  0  0  0  0  0  0  0  0  0  0
   24.3046   17.4740   37.6855 C   0  0  0  0  0  0  0  0  0  0  0  0
   24.7256   18.3591   35.4713 C   0  0  0  0  0  0  0  0  0  0  0  0
   25.0778   17.5114   36.5284 C   0  0  0  0  0  0  0  0  0  0  0  0
   25.3326   16.1133   33.1814 C   0  0  0  0  0  0  0  0  0  0  0  0
   25.6321   15.4041   32.0079 C   0  0  0  0  0  0  0  0  0  0  0  0
   25.7337   17.3979   33.3416 C   0  0  0  0  0  0  0  0  0  0  0  0
   26.3068   16.0499   30.9705 C   0  0  0  0  0  0  0  0  0  0  0  0
   26.4462   18.0052   32.3632 C   0  0  0  0  0  0  0  0  0  0  0  0
   26.6937   17.3860   31.1000 C   0  0  0  0  0  0  0  0  0  0  0  0
   26.5412   19.3583   34.2121 C   0  0  0  0  0  0  0  0  0  0  0  0
   27.0009   19.2374   32.8282 C   0  0  0  0  0  0  0  0  0  0  0  0
   21.6108   19.7766   37.0230 O   0  0  0  0  0  0  0  0  0  0  0  0
   22.4203   18.1036   38.9482 O   0  0  0  0  0  0  0  0  0  0  0  0
   22.9499   24.3133   34.5239 O   0  0  0  0  0  0  0  0  0  0  0  0
   21.9605   22.6626   31.1946 N   0  0  0  0  0  0  0  0  0  0  0  0
   25.5886   18.3197   34.3798 N   0  0  0  0  0  0  0  0  0  0  0  0
   25.0307   16.6043   38.9624 Cl  0  0  0  0  0  0  0  0  0  0  0  0
  1  3  2  0
  1  4  1  0
  2  5  2  0
  2 10  1  0
  2 22  1  0
  3  7  1  0
  4  6  2  0
  4 25  1  0
  5 11  1  0
  5 23  1  0
  6  8  1  0
  6  9  1  0
  7  8  2  0
  7 10  1  0
  9 24  2  0
 10 12  2  0
 11 13  2  0
 11 27  1  0
 12 13  1  0
 12 26  1  0
 14 15  2  0
 14 16  1  0
 15 17  1  0
 16 18  2  0
 16 26  1  0
 17 19  2  0
 18 19  1  0
 18 21  1  0
 20 21  1  0
 20 26  1  0
M  END
$$$$

     RDKit          3D

 29 32  0  0  0  0  0  0  0  0999 V2000
   21.5133   17.9335   29.1360 C   0  0  0  0  0  0  0  0  0  0  0  0
   21.7558   18.6331   30.3414 C   0  0  0  0  0  0  0  0  0  0  0  0
   22.0697   18.3801   27.9626 C   0  0  0  0  0  0  0  0  0  0  0  0
   22.5487   19.8106   30.3419 C   0  0  0  0  0  0  0  0  0  0  0  0
   22.7420   19.5883   27.9491 C   0  0  0  0  0  0  0  0  0  0  0  0
   22.9474   20.4930   31.5769 C   0  0  0  0  0  0  0  0  0  0  0  0
   22.7858   22.6405   34.5445 C   0  0  0  0  0  0  0  0  0  0  0  0
   22.9696   20.2908   29.1073 C   0  0  0  0  0  0  0  0  0  0  0  0
   23.1345   21.7007   33.4378 C   0  0  0  0  0  0  0  0  0  0  0  0
   24.4116   19.2054   35.7399 C   0  0  0  0  0  0  0  0  0  0  0  0
   24.2943   20.9453   33.3234 C   0  0  0  0  0  0  0  0  0  0  0  0
   24.4783   18.3874   36.8518 C   0  0  0  0  0  0  0  0  0  0  0  0
   25.0813   17.9704   31.9047 C   0  0  0  0  0  0  0  0  0  0  0  0
   25.1128   19.3402   31.5500 C   0  0  0  0  0  0  0  0  0  0  0  0
   25.4490   20.9776   34.2570 C   0  0  0  0  0  0  0  0  0  0  0  0
   25.6458   18.3467   37.6168 C   0  0  0  0  0  0  0  0  0  0  0  0
   25.4732   20.0258   35.3751 C   0  0  0  0  0  0  0  0  0  0  0  0
   25.9744   17.0797   31.3578 C   0  0  0  0  0  0  0  0  0  0  0  0
   26.0523   19.7625   30.6395 C   0  0  0  0  0  0  0  0  0  0  0  0
   26.6286   19.9986   36.1640 C   0  0  0  0  0  0  0  0  0  0  0  0
   26.9442   17.5136   30.4539 C   0  0  0  0  0  0  0  0  0  0  0  0
   26.7502   19.1475   37.2804 C   0  0  0  0  0  0  0  0  0  0  0  0
   26.9717   18.8558   30.0902 C   0  0  0  0  0  0  0  0  0  0  0  0
   22.3099   23.7556   34.3159 O   0  0  0  0  0  0  0  0  0  0  0  0
   22.8953   22.2030   35.7526 O   0  0  0  0  0  0  0  0  0  0  0  0
   22.3157   21.4160   32.3481 N   0  0  0  0  0  0  0  0  0  0  0  0
   24.2049   20.2092   32.1515 N   0  0  0  0  0  0  0  0  0  0  0  0
   28.1665   18.8501   38.1422 Cl  0  0  0  0  0  0  0  0  0  0  0  0
   28.2874   19.5854   29.2105 Cl  0  0  0  0  0  0  0  0  0  0  0  0
  1  2  2  0
  1  3  1  0
  2  4  1  0
  3  5  2  0
  4  6  1  0
  4  8  2  0
  5  8  1  0
  6 26  2  0
  6 27  1  0
  7  9  1  0
  7 24  2  0
  7 25  1  0
  9 11  2  0
  9 26  1  0
 10 12  2  0
 10 17  1  0
 11 15  1  0
 11 27  1  0
 12 16  1  0
 13 14  2  0
 13 18  1  0
 14 19  1  0
 14 27  1  0
 15 17  1  0
 16 22  2  0
 17 20  2  0
 18 21  2  0
 19 23  2  0
 20 22  1  0
 21 23  1  0
 22 28  1  0
 23 29  1  0
M  END
$$$$

     RDKit          3D

 21 23  0  0  0  0  0  0  0  0999 V2000
   22.2782   18.6357   37.9777 C   0  0  0  0  0  0  0  0  0  0  0  0
   22.3040   21.8881   31.2480 C   0  0  0  0  0  0  0  0  0  0  0  0
   22.7016   22.5687   32.4016 C   0  0  0  0  0  0  0  0  0  0  0  0
   22.7837   20.6198   30.9971 C   0  0  0  0  0  0  0  0  0  0  0  0
   23.1662   19.3984   35.7593 C   0  0  0  0  0  0  0  0  0  0  0  0
   23.3030   18.7092   37.0014 C   0  0  1  0  0  0  0  0  0  0  0  0
   23.6430   20.0106   31.9047 C   0  0  0  0  0  0  0  0  0  0  0  0
   23.5375   21.9560   33.2921 C   0  0  0  0  0  0  0  0  0  0  0  0
   24.0069   20.6865   33.0485 C   0  0  0  0  0  0  0  0  0  0  0  0
   24.4422   19.4698   35.1812 C   0  0  0  0  0  0  0  0  0  0  0  0
   24.6504   18.4042   37.2001 C   0  0  0  0  0  0  0  0  0  0  0  0
   24.9310   20.0872   34.0048 C   0  0  0  0  0  0  0  0  0  0  0  0
   25.3334   18.9178   36.0837 C   0  0  0  0  0  0  0  0  0  0  0  0
   26.2950   20.0199   33.7799 C   0  0  0  0  0  0  0  0  0  0  0  0
   27.1726   19.4426   34.7381 C   0  0  0  0  0  0  0  0  0  0  0  0
   22.4849   18.3000   39.1547 O   0  0  0  0  0  0  0  0  0  0  0  0
   20.9612   18.6632   37.6507 N   0  0  0  0  0  0  0  0  0  0  0  0
   21.5018   22.4827   30.3999 N   0  0  0  0  0  0  0  0  0  0  0  0
   26.6640   18.9021   35.8505 N   0  0  0  0  0  0  0  0  0  0  0  0
   26.7549   20.3583   32.6044 F   0  0  0  0  0  0  0  0  0  0  0  0
   24.0728   18.3467   31.6926 Cl  0  0  0  0  0  0  0  0  0  0  0  0
  6  1  1  1
  1 16  2  0
  1 17  1  0
  2  3  1  0
  2  4  1  0
  2 18  2  0
  3  8  2  0
  4  7  1  0
  5  6  1  0
  5 10  1  0
  6 11  1  0
  7  9  2  0
  7 21  1  0
  8  9  1  0
  9 12  1  0
 10 12  1  0
 10 13  2  0
 11 13  1  0
 12 14  2  0
 13 19  1  0
 14 15  1  0
 14 20  1  0
 15 19  2  0
M  END
$$$$

     RDKit          3D

 22 24  0  0  0  0  0  0  0  0999 V2000
   22.0566   21.6802   31.2608 C   0  0  0  0  0  0  0  0  0  0  0  0
   22.2490   20.3418   31.0645 C   0  0  0  0  0  0  0  0  0  0  0  0
   22.5568   22.2957   32.4191 C   0  0  0  0  0  0  0  0  0  0  0  0
   22.6512   22.6642   35.6112 C   0  0  0  0  0  0  0  0  0  0  0  0
   22.8561   18.2829   37.8664 C   0  0  0  0  0  0  0  0  0  0  0  0
   22.8275   19.5571   32.0084 C   0  0  0  0  0  0  0  0  0  0  0  0
   23.0224   19.0530   35.5181 C   0  0  0  0  0  0  0  0  0  0  0  0
   23.1509   21.4856   33.4328 C   0  0  0  0  0  0  0  0  0  0  0  0
   23.3155   17.4913   38.9212 C   0  0  0  0  0  0  0  0  0  0  0  0
   23.2298   20.0715   33.2594 C   0  0  0  0  0  0  0  0  0  0  0  0
   23.5716   18.3575   36.6444 C   0  0  0  0  0  0  0  0  0  0  0  0
   23.6280   22.2225   34.6131 C   0  0  0  0  0  0  0  0  0  0  0  0
   23.7651   19.2315   34.3402 C   0  0  0  0  0  0  0  0  0  0  0  0
   24.5034   16.7454   38.7609 C   0  0  0  0  0  0  0  0  0  0  0  0
   24.8393   17.7393   36.5048 C   0  0  0  0  0  0  0  0  0  0  0  0
   25.1359   18.7630   34.3270 C   0  0  0  0  0  0  0  0  0  0  0  0
   25.2950   16.8921   37.5955 C   0  0  0  0  0  0  0  0  0  0  0  0
   21.7038   19.4804   35.7104 O   0  0  0  0  0  0  0  0  0  0  0  0
   21.4798   23.2038   35.2576 O   0  0  0  0  0  0  0  0  0  0  0  0
   23.1100   23.0789   36.7151 O   0  0  0  0  0  0  0  0  0  0  0  0
   25.8118   18.9614   33.3073 O   0  0  0  0  0  0  0  0  0  0  0  0
   25.6059   18.0262   35.3940 N   0  0  0  0  0  0  0  0  0  0  0  0
  1  2  2  0
  1  3  1  0
  2  6  1  0
  3  8  2  0
  4 12  1  0
  4 19  2  0
  4 20  1  0
  5  9  2  0
  5 11  1  0
  6 10  2  0
  7 11  1  0
  7 13  2  0
  7 18  1  0
  8 10  1  0
  8 12  1  0
  9 14  1  0
 10 13  1  0
 11 15  1  0
 13 16  1  0
 14 17  2  0
 15 17  1  0
 15 22  2  0
 16 21  2  0
 16 22  1  0
M  END
$$$$

     RDKit          3D

 23 26  0  0  0  0  0  0  0  0999 V2000
   21.2340   17.9622   29.5719 C   0  0  0  0  0  0  0  0  0  0  0  0
   21.7861   19.8114   31.2029 C   0  0  0  0  0  0  0  0  0  0  0  0
   22.4130   22.9202   35.8798 C   0  0  0  0  0  0  0  0  0  0  0  0
   22.5475   20.2197   32.3712 C   0  0  0  0  0  0  0  0  0  0  0  0
   23.0583   23.8563   36.7980 C   0  0  0  0  0  0  0  0  0  0  0  0
   23.3115   17.8622   31.1756 C   0  0  0  0  0  0  0  0  0  0  0  0
   23.2942   21.4056   34.0967 C   0  0  0  0  0  0  0  0  0  0  0  0
   23.4286   22.4346   35.0715 C   0  0  0  0  0  0  0  0  0  0  0  0
   23.4784   19.4400   33.0575 C   0  0  0  0  0  0  0  0  0  0  0  0
   23.9357   18.2295   32.4574 C   0  0  0  0  0  0  0  0  0  0  0  0
   24.3897   18.9771   36.3218 C   0  0  0  0  0  0  0  0  0  0  0  0
   24.6477   23.0485   35.4038 C   0  0  0  0  0  0  0  0  0  0  0  0
   24.5194   23.9565   36.4272 C   0  0  0  0  0  0  0  0  0  0  0  0
   24.7882   19.7427   35.2159 C   0  0  0  0  0  0  0  0  0  0  0  0
   25.3895   18.5820   37.3045 C   0  0  0  0  0  0  0  0  0  0  0  0
   26.1658   20.0619   35.0620 C   0  0  0  0  0  0  0  0  0  0  0  0
   26.7469   18.8948   37.1367 C   0  0  0  0  0  0  0  0  0  0  0  0
   27.1273   19.6558   36.0195 C   0  0  0  0  0  0  0  0  0  0  0  0
   20.9519   20.6226   30.6919 O   0  0  0  0  0  0  0  0  0  0  0  0
   22.0817   18.5490   30.6720 N   0  0  0  0  0  0  0  0  0  0  0  0
   22.4462   21.4387   33.0480 N   0  0  0  0  0  0  0  0  0  0  0  0
   23.9007   20.1528   34.1908 N   0  0  0  0  0  0  0  0  0  0  0  0
   27.8470   18.3305   38.3653 Cl  0  0  0  0  0  0  0  0  0  0  0  0
  1 20  1  0
  2  4  1  0
  2 19  2  0
  2 20  1  0
  3  5  1  0
  3  8  1  0
  4  9  2  0
  4 21  1  0
  5 13  1  0
  6 10  2  0
  6 20  1  0
  7  8  1  0
  7 21  2  0
  7 22  1  0
  8 12  1  0
  9 10  1  0
  9 22  1  0
 11 14  2  0
 11 15  1  0
 12 13  1  0
 14 16  1  0
 14 22  1  0
 15 17  2  0
 16 18  2  0
 17 18  1  0
 17 23  1  0
M  END
$$$$

     RDKit          3D

 21 24  0  0  0  0  0  0  0  0999 V2000
   22.1872   22.9348   36.6615 C   0  0  0  0  0  0  0  0  0  0  0  0
   22.3090   21.7417   35.9483 C   0  0  0  0  0  0  0  0  0  0  0  0
   23.1664   23.8738   36.6684 C   0  0  0  0  0  0  0  0  0  0  0  0
   23.5627   18.7447   31.1977 C   0  0  0  0  0  0  0  0  0  0  0  0
   23.6895   19.1206   32.5380 C   0  0  0  0  0  0  0  0  0  0  0  0
   23.6728   20.2939   34.3909 C   0  0  0  0  0  0  0  0  0  0  0  0
   23.4641   21.4983   35.2038 C   0  0  0  0  0  0  0  0  0  0  0  0
   24.4545   17.6743   30.8503 C   0  0  0  0  0  0  0  0  0  0  0  0
   24.4568   18.5585   33.4491 C   0  0  0  0  0  0  0  0  0  0  0  0
   24.4412   22.4918   35.1985 C   0  0  0  0  0  0  0  0  0  0  0  0
   24.3232   23.6561   35.9283 C   0  0  0  0  0  0  0  0  0  0  0  0
   24.8071   17.9252   36.6766 C   0  0  0  0  0  0  0  0  0  0  0  0
   25.0264   17.1351   31.5268 C   0  0  0  0  0  0  0  0  0  0  0  0
   25.2087   18.8193   35.7277 C   0  0  0  0  0  0  0  0  0  0  0  0
   25.6355   17.6538   37.7966 C   0  0  0  0  0  0  0  0  0  0  0  0
   26.4707   19.3760   35.8702 C   0  0  0  0  0  0  0  0  0  0  0  0
   26.9051   18.2739   37.8956 C   0  0  0  0  0  0  0  0  0  0  0  0
   27.3264   19.1299   36.9018 C   0  0  0  0  0  0  0  0  0  0  0  0
   23.1710   20.2223   33.1386 N   0  0  0  0  0  0  0  0  0  0  0  0
   24.4320   19.1906   34.6259 N   0  0  0  0  0  0  0  0  0  0  0  0
   25.4139   17.3716   33.0197 S   0  0  0  0  0  0  0  0  0  0  0  0
  1  2  2  0
  1  3  1  0
  2  7  1  0
  3 11  2  0
  4  5  1  0
  4  8  1  0
  5  9  2  0
  5 19  1  0
  6  7  1  0
  6 19  2  0
  6 20  1  0
  7 10  2  0
  8 13  2  0
  9 20  1  0
  9 21  1  0
 10 11  1  0
 12 14  2  0
 12 15  1  0
 13 21  1  0
 14 16  1  0
 14 20  1  0
 15 17  2  0
 16 18  2  0
 17 18  1  0
M  END
$$$$

     RDKit          3D

 31 34  0  0  0  0  0  0  0  0999 V2000
   21.4237   19.5610   29.5310 C   0  0  0  0  0  0  0  0  0  0  0  0
   21.6722   20.0176   30.8340 C   0  0  0  0  0  0  0  0  0  0  0  0
   22.2218   25.8033   32.3286 C   0  0  0  0  0  0  0  0  0  0  0  0
   22.4685   19.5437   28.6196 C   0  0  0  0  0  0  0  0  0  0  0  0
   22.6752   23.3204   32.3408 C   0  0  0  0  0  0  0  0  0  0  0  0
   22.9238   20.4901   31.1915 C   0  0  0  0  0  0  0  0  0  0  0  0
   22.8139   20.5420   35.6686 C   0  0  0  0  0  0  0  0  0  0  0  0
   22.7602   24.5991   32.9640 C   0  0  0  0  0  0  0  0  0  0  0  0
   23.0202   19.4160   36.5136 C   0  0  0  0  0  0  0  0  0  0  0  0
   23.1724   22.2207   33.0056 C   0  0  0  0  0  0  0  0  0  0  0  0
   23.4056   24.7687   34.2115 C   0  0  0  0  0  0  0  0  0  0  0  0
   23.6808   22.4000   34.3152 C   0  0  2  0  0  0  0  0  0  0  0  0
   23.7498   20.0008   28.9671 C   0  0  0  0  0  0  0  0  0  0  0  0
   23.9497   20.4563   30.2460 C   0  0  0  0  0  0  0  0  0  0  0  0
   23.9112   21.2441   35.1634 C   0  0  0  0  0  0  0  0  0  0  0  0
   23.8552   23.6617   34.8836 C   0  0  0  0  0  0  0  0  0  0  0  0
   24.3302   18.9493   36.7229 C   0  0  0  0  0  0  0  0  0  0  0  0
   25.2029   20.8092   35.4098 C   0  0  0  0  0  0  0  0  0  0  0  0
   25.4391   19.6719   36.2356 C   0  0  2  0  0  0  0  0  0  0  0  0
   26.8172   19.2607   36.4693 C   0  0  0  0  0  0  0  0  0  0  0  0
   27.2673   18.9199   37.7383 C   0  0  0  0  0  0  0  0  0  0  0  0
   27.6878   19.3041   35.3999 C   0  0  0  0  0  0  0  0  0  0  0  0
   28.6343   18.6904   37.9507 C   0  0  0  0  0  0  0  0  0  0  0  0
   29.0300   19.0807   35.6223 C   0  0  0  0  0  0  0  0  0  0  0  0
   29.5011   18.8025   36.8864 C   0  0  0  0  0  0  0  0  0  0  0  0
   30.9956   18.6798   37.0535 C   0  0  0  0  0  0  0  0  0  0  0  0
   21.1549   25.6998   31.6956 O   0  0  0  0  0  0  0  0  0  0  0  0
   22.0279   18.9206   37.1812 O   0  0  0  0  0  0  0  0  0  0  0  0
   22.7821   26.9127   32.5351 O   0  0  0  0  0  0  0  0  0  0  0  0
   23.1819   20.8951   32.5241 O   0  0  0  0  0  0  0  0  0  0  0  0
   31.6687   19.2388   36.0381 O   0  0  0  0  0  0  0  0  0  0  0  0
  1  2  2  0
  1  4  1  0
  2  6  1  0
  3  8  1  0
  3 27  2  0
  3 29  1  0
  4 13  2  0
  5  8  1  0
  5 10  2  0
  6 14  2  0
  6 30  1  0
  7  9  1  0
  7 15  1  0
  8 11  1  0
  9 17  2  0
  9 28  1  0
 10 12  1  0
 10 30  1  0
 11 16  2  0
 12 15  1  1
 12 16  1  0
 13 14  1  0
 15 18  2  0
 17 19  1  0
 18 19  1  0
 19 20  1  6
 20 21  2  0
 20 22  1  0
 21 23  1  0
 22 24  2  0
 23 25  2  0
 24 25  1  0
 25 26  1  0
 26 31  1  0
M  END
$$$$

     RDKit          3D

 32 36  0  0  0  0  0  0  0  0999 V2000
   21.8448   20.1144   30.1563 C   0  0  0  0  0  0  0  0  0  0  0  0
   21.7857   21.4202   29.7591 C   0  0  0  0  0  0  0  0  0  0  0  0
   22.0359   19.8142   31.4931 C   0  0  0  0  0  0  0  0  0  0  0  0
   22.0853   22.4523   30.6672 C   0  0  0  0  0  0  0  0  0  0  0  0
   22.3155   20.8226   32.4216 C   0  0  0  0  0  0  0  0  0  0  0  0
   22.3744   22.1316   31.9992 C   0  0  0  0  0  0  0  0  0  0  0  0
   22.4722   17.0116   38.5385 C   0  0  0  0  0  0  0  0  0  0  0  0
   22.9463   19.9632   36.6171 C   0  0  0  0  0  0  0  0  0  0  0  0
   23.1913   21.3088   34.5736 C   0  0  2  0  0  0  0  0  0  0  0  0
   23.3546   19.0567   37.5335 C   0  0  0  0  0  0  0  0  0  0  0  0
   23.5681   22.5528   34.0699 C   0  0  0  0  0  0  0  0  0  0  0  0
   23.8026   20.4654   35.5818 C   0  0  2  0  0  0  0  0  0  0  0  0
   25.5160   18.3399   33.6211 C   0  0  0  0  0  0  0  0  0  0  0  0
   25.6193   19.6290   34.1644 C   0  0  0  0  0  0  0  0  0  0  0  0
   25.6234   19.4345   36.5613 C   0  0  2  0  0  0  0  0  0  0  0  0
   26.0335   18.0844   32.3822 C   0  0  0  0  0  0  0  0  0  0  0  0
   26.2244   20.6391   33.4473 C   0  0  0  0  0  0  0  0  0  0  0  0
   26.6109   19.1016   31.6352 C   0  0  0  0  0  0  0  0  0  0  0  0
   26.7562   20.3528   32.1888 C   0  0  0  0  0  0  0  0  0  0  0  0
   26.9918   19.2285   36.8814 C   0  0  0  0  0  0  0  0  0  0  0  0
   27.3174   18.8909   38.1838 C   0  0  0  0  0  0  0  0  0  0  0  0
   28.0526   19.4065   35.9529 C   0  0  0  0  0  0  0  0  0  0  0  0
   28.6606   18.5984   38.5182 C   0  0  0  0  0  0  0  0  0  0  0  0
   29.3613   19.1973   36.3097 C   0  0  0  0  0  0  0  0  0  0  0  0
   29.6494   18.8427   37.6175 C   0  0  0  0  0  0  0  0  0  0  0  0
   21.7968   20.4506   36.8306 O   0  0  0  0  0  0  0  0  0  0  0  0
   22.4373   20.4588   33.7458 O   0  0  0  0  0  0  0  0  0  0  0  0
   22.5829   18.4535   38.3956 O   0  0  0  0  0  0  0  0  0  0  0  0
   22.6781   22.9370   32.9955 O   0  0  0  0  0  0  0  0  0  0  0  0
   24.7169   18.7910   37.3930 N   0  0  0  0  0  0  0  0  0  0  0  0
   25.0765   19.9125   35.4248 N   0  0  0  0  0  0  0  0  0  0  0  0
   31.3755   18.9152   37.8495 Cl  0  0  0  0  0  0  0  0  0  0  0  0
  1  2  2  0
  1  3  1  0
  2  4  1  0
  3  5  1  0
  4  6  1  0
  5  6  2  0
  5 27  1  0
  6 29  1  0
  7 28  1  0
  8 10  1  0
  8 12  1  0
  8 26  2  0
  9 11  1  6
  9 12  1  0
  9 27  1  0
 10 28  1  0
 10 30  2  0
 11 29  1  0
 12 31  1  6
 13 14  2  0
 13 16  1  0
 14 17  1  0
 14 31  1  0
 15 20  1  6
 15 30  1  0
 15 31  1  0
 16 18  2  0
 17 19  2  0
 18 19  1  0
 20 21  2  0
 20 22  1  0
 21 23  1  0
 22 24  2  0
 23 25  2  0
 24 25  1  0
 25 32  1  0
M  END
$$$$

     RDKit          3D

 26 30  0  0  0  0  0  0  0  0999 V2000
   22.7692   20.6604   36.5438 C   0  0  0  0  0  0  0  0  0  0  0  0
   22.9886   23.8358   36.4370 C   0  0  0  0  0  0  0  0  0  0  0  0
   23.4404   20.4902   35.3110 C   0  0  1  0  0  0  0  0  0  0  0  0
   23.3844   21.6756   34.5937 C   0  0  2  0  0  0  0  0  0  0  0  0
   23.6695   24.7823   35.4468 C   0  0  0  0  0  0  0  0  0  0  0  0
   24.2675   19.3358   34.9907 C   0  0  1  0  0  0  0  0  0  0  0  0
   24.8700   16.8737   33.5344 C   0  0  0  0  0  0  0  0  0  0  0  0
   24.9358   17.8923   37.0550 C   0  0  0  0  0  0  0  0  0  0  0  0
   24.8780   19.3938   33.6144 C   0  0  2  0  0  0  0  0  0  0  0  0
   25.2096   15.6560   32.9119 C   0  0  0  0  0  0  0  0  0  0  0  0
   25.2094   18.1549   32.9217 C   0  0  0  0  0  0  0  0  0  0  0  0
   25.2157   18.9470   36.1605 C   0  0  0  0  0  0  0  0  0  0  0  0
   25.3409   20.6949   33.0092 C   0  0  1  0  0  0  0  0  0  0  0  0
   25.9288   15.7038   31.6944 C   0  0  0  0  0  0  0  0  0  0  0  0
   25.8133   17.6594   38.1513 C   0  0  0  0  0  0  0  0  0  0  0  0
   25.7868   18.1435   31.6407 C   0  0  0  0  0  0  0  0  0  0  0  0
   25.9222   19.4379   30.9122 C   0  0  0  0  0  0  0  0  0  0  0  0
   26.2052   16.9414   31.0345 C   0  0  0  0  0  0  0  0  0  0  0  0
   26.3952   19.6965   36.3321 C   0  0  0  0  0  0  0  0  0  0  0  0
   27.0177   18.4176   38.2731 C   0  0  0  0  0  0  0  0  0  0  0  0
   27.3036   19.4353   37.3699 C   0  0  0  0  0  0  0  0  0  0  0  0
   21.9691   21.7231   36.5530 O   0  0  0  0  0  0  0  0  0  0  0  0
   26.1473   19.4428   29.6277 O   0  0  0  0  0  0  0  0  0  0  0  0
   22.4520   22.6602   35.4443 N   0  0  0  0  0  0  0  0  0  0  0  0
   25.6167   20.6411   31.5596 N   0  0  0  0  0  0  0  0  0  0  0  0
   23.9115   21.9280   33.1583 S   0  0  0  0  0  0  0  0  0  0  0  0
  3  1  1  1
  1 22  1  0
  2  5  1  0
  2 24  1  0
  3  4  1  0
  3  6  1  0
  4 24  1  0
  4 26  1  6
  6  9  1  0
  6 12  1  1
  7 10  1  0
  7 11  2  0
  8 12  2  0
  8 15  1  0
  9 11  1  1
  9 13  1  0
 10 14  2  0
 11 16  1  0
 12 19  1  0
 13 25  1  6
 13 26  1  0
 14 18  1  0
 15 20  2  0
 16 17  1  0
 16 18  2  0
 17 23  2  0
 17 25  1  0
 19 21  2  0
 20 21  1  0
 22 24  1  0
M  END
$$$$

     RDKit          3D

 17 19  0  0  0  0  0  0  0  0999 V2000
   22.5842   20.6892   31.8684 C   0  0  0  0  0  0  0  0  0  0  0  0
   22.6407   22.0191   32.2058 C   0  0  0  0  0  0  0  0  0  0  0  0
   22.8583   19.6703   32.7546 C   0  0  0  0  0  0  0  0  0  0  0  0
   23.0360   22.3957   33.4923 C   0  0  0  0  0  0  0  0  0  0  0  0
   23.2621   18.2027   38.4867 C   0  0  0  0  0  0  0  0  0  0  0  0
   23.3412   19.9518   34.0585 C   0  0  0  0  0  0  0  0  0  0  0  0
   23.3359   21.3240   34.4043 C   0  0  0  0  0  0  0  0  0  0  0  0
   23.5848   18.3082   37.1519 C   0  0  0  0  0  0  0  0  0  0  0  0
   24.0010   17.3409   39.2829 C   0  0  0  0  0  0  0  0  0  0  0  0
   24.6371   17.6425   36.6070 C   0  0  0  0  0  0  0  0  0  0  0  0
   24.7272   17.8649   35.1873 C   0  0  0  0  0  0  0  0  0  0  0  0
   25.1045   16.6419   38.7597 C   0  0  0  0  0  0  0  0  0  0  0  0
   25.3993   16.7602   37.4019 C   0  0  0  0  0  0  0  0  0  0  0  0
   22.3418   22.9374   31.1788 O   0  0  0  0  0  0  0  0  0  0  0  0
   25.4668   17.3227   34.3741 O   0  0  0  0  0  0  0  0  0  0  0  0
   22.9873   19.0176   36.1355 N   0  0  0  0  0  0  0  0  0  0  0  0
   23.6305   18.8925   35.0126 N   0  0  0  0  0  0  0  0  0  0  0  0
  1  2  2  0
  1  3  1  0
  2  4  1  0
  2 14  1  0
  3  6  2  0
  4  7  2  0
  5  8  2  0
  5  9  1  0
  6  7  1  0
  6 17  1  0
  8 10  1  0
  8 16  1  0
  9 12  2  0
 10 11  1  0
 10 13  2  0
 11 15  2  0
 11 17  1  0
 12 13  1  0
 16 17  1  0
M  END
$$$$

     RDKit          3D

 37 41  0  0  0  0  0  0  0  0999 V2000
   20.5063   15.6701   41.8256 C   0  0  0  0  0  0  0  0  0  0  0  0
   21.3839   18.6878   29.4076 C   0  0  0  0  0  0  0  0  0  0  0  0
   21.6784   16.0775   41.0529 C   0  0  0  0  0  0  0  0  0  0  0  0
   21.7077   19.4139   30.5510 C   0  0  0  0  0  0  0  0  0  0  0  0
   21.8131   15.6278   39.7680 C   0  0  0  0  0  0  0  0  0  0  0  0
   22.2105   18.7324   28.2959 C   0  0  0  0  0  0  0  0  0  0  0  0
   22.5403   16.9728   41.6405 C   0  0  0  0  0  0  0  0  0  0  0  0
   22.8525   16.1170   39.0082 C   0  0  0  0  0  0  0  0  0  0  0  0
   22.8605   20.1766   30.5776 C   0  0  0  0  0  0  0  0  0  0  0  0
   23.3332   19.5193   28.2812 C   0  0  0  0  0  0  0  0  0  0  0  0
   23.2954   20.8819   31.8209 C   0  0  0  0  0  0  0  0  0  0  0  0
   23.3614   23.4044   34.4093 C   0  0  0  0  0  0  0  0  0  0  0  0
   23.5399   17.5155   40.8668 C   0  0  0  0  0  0  0  0  0  0  0  0
   23.6460   20.2333   29.4342 C   0  0  0  0  0  0  0  0  0  0  0  0
   23.5446   22.2723   33.4544 C   0  0  0  0  0  0  0  0  0  0  0  0
   23.7305   17.0163   39.5742 C   0  0  0  0  0  0  0  0  0  0  0  0
   24.6151   21.4282   33.4372 C   0  0  0  0  0  0  0  0  0  0  0  0
   24.9314   17.5223   38.8324 C   0  0  0  0  0  0  0  0  0  0  0  0
   25.1320   19.7328   35.9762 C   0  0  0  0  0  0  0  0  0  0  0  0
   25.2300   18.3670   32.2005 C   0  0  0  0  0  0  0  0  0  0  0  0
   25.4256   19.6975   31.9520 C   0  0  0  0  0  0  0  0  0  0  0  0
   25.5241   18.8183   36.9548 C   0  0  0  0  0  0  0  0  0  0  0  0
   25.8561   21.4908   34.2378 C   0  0  0  0  0  0  0  0  0  0  0  0
   26.1140   17.4724   31.6255 C   0  0  0  0  0  0  0  0  0  0  0  0
   26.1010   20.4614   35.2590 C   0  0  0  0  0  0  0  0  0  0  0  0
   26.4942   20.1984   31.2614 C   0  0  0  0  0  0  0  0  0  0  0  0
   26.8654   18.5429   37.1805 C   0  0  0  0  0  0  0  0  0  0  0  0
   27.1589   17.9498   30.8532 C   0  0  0  0  0  0  0  0  0  0  0  0
   27.4019   19.2884   30.6774 C   0  0  0  0  0  0  0  0  0  0  0  0
   27.4768   20.1938   35.5350 C   0  0  0  0  0  0  0  0  0  0  0  0
   27.8560   19.1958   36.4604 C   0  0  0  0  0  0  0  0  0  0  0  0
   29.9697   18.2742   35.8564 C   0  0  0  0  0  0  0  0  0  0  0  0
   19.7804   16.6635   43.0377 O   0  0  0  0  0  0  0  0  0  0  0  0
   24.5456   18.1061   37.6396 O   0  0  0  0  0  0  0  0  0  0  0  0
   29.1703   18.9247   36.7557 O   0  0  0  0  0  0  0  0  0  0  0  0
   22.7274   21.9085   32.4310 N   0  0  0  0  0  0  0  0  0  0  0  0
   24.4578   20.6139   32.3964 N   0  0  0  0  0  0  0  0  0  0  0  0
  1  3  1  0
  1 33  1  0
  2  4  2  0
  2  6  1  0
  3  5  2  0
  3  7  1  0
  4  9  1  0
  5  8  1  0
  6 10  2  0
  7 13  2  0
  8 16  2  0
  9 11  1  0
  9 14  2  0
 10 14  1  0
 11 36  2  0
 11 37  1  0
 12 15  1  0
 13 16  1  0
 15 17  2  0
 15 36  1  0
 16 18  1  0
 17 23  1  0
 17 37  1  0
 18 34  1  0
 19 22  2  0
 19 25  1  0
 20 21  2  0
 20 24  1  0
 21 26  1  0
 21 37  1  0
 22 27  1  0
 22 34  1  0
 23 25  1  0
 24 28  2  0
 25 30  2  0
 26 29  2  0
 27 31  2  0
 28 29  1  0
 30 31  1  0
 31 35  1  0
 32 35  1  0
M  END
$$$$

     RDKit          3D

 28 31  0  0  0  0  0  0  0  0999 V2000
   20.9863   19.9430   30.3555 C   0  0  0  0  0  0  0  0  0  0  0  0
   21.5771   20.3946   29.1608 C   0  0  0  0  0  0  0  0  0  0  0  0
   21.7170   19.9755   31.5454 C   0  0  0  0  0  0  0  0  0  0  0  0
   22.3154   22.8524   36.3372 C   0  0  0  0  0  0  0  0  0  0  0  0
   22.9484   20.6284   31.5315 C   0  0  0  0  0  0  0  0  0  0  0  0
   22.9298   20.8228   29.1343 C   0  0  0  0  0  0  0  0  0  0  0  0
   23.2544   21.8289   33.6540 C   0  0  0  0  0  0  0  0  0  0  0  0
   23.6431   20.8393   32.7488 C   0  0  1  0  0  0  0  0  0  0  0  0
   23.6201   20.9470   30.3203 C   0  0  0  0  0  0  0  0  0  0  0  0
   23.7006   22.2751   36.0700 C   0  0  0  0  0  0  0  0  0  0  0  0
   24.5558   17.4638   32.9034 C   0  0  0  0  0  0  0  0  0  0  0  0
   24.5586   18.7253   36.3424 C   0  0  0  0  0  0  0  0  0  0  0  0
   24.5572   20.4106   34.6005 C   0  0  2  0  0  0  0  0  0  0  0  0
   25.1263   16.3342   32.2828 C   0  0  0  0  0  0  0  0  0  0  0  0
   25.0537   18.7587   32.6226 C   0  0  0  0  0  0  0  0  0  0  0  0
   25.2399   18.0621   37.4020 C   0  0  0  0  0  0  0  0  0  0  0  0
   25.2403   19.7232   35.6306 C   0  0  0  0  0  0  0  0  0  0  0  0
   26.1715   16.4395   31.3356 C   0  0  0  0  0  0  0  0  0  0  0  0
   26.1090   18.8735   31.6741 C   0  0  0  0  0  0  0  0  0  0  0  0
   26.6397   17.7311   31.0711 C   0  0  0  0  0  0  0  0  0  0  0  0
   26.5517   18.3841   37.6633 C   0  0  0  0  0  0  0  0  0  0  0  0
   26.5656   20.0225   35.8837 C   0  0  0  0  0  0  0  0  0  0  0  0
   27.2297   19.3690   36.9391 C   0  0  0  0  0  0  0  0  0  0  0  0
   23.2152   18.6754   36.0314 O   0  0  0  0  0  0  0  0  0  0  0  0
   22.4424   24.0439   37.1526 N   0  0  0  0  0  0  0  0  0  0  0  0
   23.8197   21.5380   34.8123 N   0  0  0  0  0  0  0  0  0  0  0  0
   24.4719   19.9166   33.2886 N   0  0  0  0  0  0  0  0  0  0  0  0
   26.7980   15.1464   30.4231 Cl  0  0  0  0  0  0  0  0  0  0  0  0
  1  2  1  0
  1  3  2  0
  2  6  1  0
  3  5  1  0
  4 10  1  0
  4 25  1  0
  8  5  1  1
  5  9  1  0
  6  9  2  0
  7  8  1  0
  7 26  1  0
  8 27  1  0
 10 26  1  0
 11 14  2  0
 11 15  1  0
 12 16  2  0
 12 17  1  0
 12 24  1  0
 13 17  1  1
 13 26  1  0
 13 27  1  0
 14 18  1  0
 15 19  2  0
 15 27  1  0
 16 21  1  0
 17 22  2  0
 18 20  2  0
 18 28  1  0
 19 20  1  0
 21 23  2  0
 22 23  1  0
M  END
$$$$

     RDKit          3D

 29 33  0  0  0  0  0  0  0  0999 V2000
   21.2652   19.5679   30.1138 C   0  0  0  0  0  0  0  0  0  0  0  0
   21.4061   20.8070   29.5633 C   0  0  0  0  0  0  0  0  0  0  0  0
   21.7309   19.3414   31.4070 C   0  0  0  0  0  0  0  0  0  0  0  0
   22.0054   21.8654   30.2678 C   0  0  0  0  0  0  0  0  0  0  0  0
   22.3534   20.3495   32.1042 C   0  0  0  0  0  0  0  0  0  0  0  0
   22.5776   19.4631   36.8453 C   0  0  0  0  0  0  0  0  0  0  0  0
   22.5218   21.6170   31.5598 C   0  0  0  0  0  0  0  0  0  0  0  0
   22.8047   18.0512   38.8509 C   0  0  0  0  0  0  0  0  0  0  0  0
   22.8959   20.0328   33.4021 C   0  0  0  0  0  0  0  0  0  0  0  0
   22.9928   19.6496   35.4938 C   0  0  0  0  0  0  0  0  0  0  0  0
   23.3263   18.5145   37.6409 C   0  0  0  0  0  0  0  0  0  0  0  0
   23.4650   16.9909   39.4633 C   0  0  0  0  0  0  0  0  0  0  0  0
   24.1733   19.1438   34.9637 C   0  0  0  0  0  0  0  0  0  0  0  0
   24.1682   19.4371   33.5837 C   0  0  0  0  0  0  0  0  0  0  0  0
   24.6850   16.5576   38.9691 C   0  0  0  0  0  0  0  0  0  0  0  0
   24.5718   18.0287   37.1222 C   0  0  0  0  0  0  0  0  0  0  0  0
   25.1970   17.8640   32.0121 C   0  0  0  0  0  0  0  0  0  0  0  0
   25.1234   18.4359   35.7876 C   0  0  0  0  0  0  0  0  0  0  0  0
   25.1128   19.1537   32.5021 C   0  0  0  0  0  0  0  0  0  0  0  0
   25.2514   17.0519   37.8344 C   0  0  0  0  0  0  0  0  0  0  0  0
   25.8298   20.1920   31.9370 C   0  0  0  0  0  0  0  0  0  0  0  0
   26.1022   17.5359   30.9844 C   0  0  0  0  0  0  0  0  0  0  0  0
   26.6940   19.8896   30.8431 C   0  0  0  0  0  0  0  0  0  0  0  0
   26.8370   18.5571   30.3838 C   0  0  0  0  0  0  0  0  0  0  0  0
   20.7486   18.5373   29.4382 O   0  0  0  0  0  0  0  0  0  0  0  0
   21.5175   20.0764   37.2460 O   0  0  0  0  0  0  0  0  0  0  0  0
   22.2898   20.1629   34.5200 O   0  0  0  0  0  0  0  0  0  0  0  0
   26.2721   18.2600   35.4481 O   0  0  0  0  0  0  0  0  0  0  0  0
   27.4576   20.8708   30.2615 O   0  0  0  0  0  0  0  0  0  0  0  0
  1  2  2  0
  1  3  1  0
  1 25  1  0
  2  4  1  0
  3  5  2  0
  4  7  2  0
  5  7  1  0
  5  9  1  0
  6 10  2  0
  6 11  1  0
  6 26  1  0
  8 11  2  0
  8 12  1  0
  9 14  2  0
  9 27  1  0
 10 13  1  0
 10 27  1  0
 11 16  1  0
 12 15  2  0
 13 14  1  0
 13 18  1  0
 14 19  1  0
 15 20  1  0
 16 18  1  0
 16 20  2  0
 17 19  2  0
 17 22  1  0
 18 28  2  0
 19 21  1  0
 21 23  1  0
 22 24  1  0
 23 24  2  0
 23 29  1  0
M  END
$$$$

     RDKit          3D

 28 31  0  0  0  0  0  0  0  0999 V2000
   22.0813   18.0152   29.0211 C   0  0  0  0  0  0  0  0  0  0  0  0
   22.1679   22.8384   35.4229 C   0  0  0  0  0  0  0  0  0  0  0  0
   21.9723   23.7141   36.4859 C   0  0  0  0  0  0  0  0  0  0  0  0
   22.3611   20.0616   30.5543 C   0  0  0  0  0  0  0  0  0  0  0  0
   22.2309   23.0280   31.6786 C   0  0  0  0  0  0  0  0  0  0  0  0
   22.6454   18.6951   30.2633 C   0  0  0  0  0  0  0  0  0  0  0  0
   22.9191   20.6598   31.7475 C   0  0  0  0  0  0  0  0  0  0  0  0
   22.8120   25.4589   38.0545 C   0  0  0  0  0  0  0  0  0  0  0  0
   23.0605   24.4339   36.9868 C   0  0  0  0  0  0  0  0  0  0  0  0
   23.3988   22.7040   34.8101 C   0  0  0  0  0  0  0  0  0  0  0  0
   23.4706   17.9241   31.1634 C   0  0  0  0  0  0  0  0  0  0  0  0
   23.6999   19.8486   32.6478 C   0  0  0  0  0  0  0  0  0  0  0  0
   23.4620   21.8310   33.6082 C   0  0  0  0  0  0  0  0  0  0  0  0
   23.9532   18.5107   32.3415 C   0  0  0  0  0  0  0  0  0  0  0  0
   24.0160   19.4534   35.8953 C   0  0  0  0  0  0  0  0  0  0  0  0
   24.0105   20.5971   33.7483 C   0  0  0  0  0  0  0  0  0  0  0  0
   24.3559   24.2270   36.4658 C   0  0  0  0  0  0  0  0  0  0  0  0
   24.6382   18.9216   37.0199 C   0  0  0  0  0  0  0  0  0  0  0  0
   24.5360   23.3847   35.3555 C   0  0  0  0  0  0  0  0  0  0  0  0
   24.7935   20.0879   34.8834 C   0  0  0  0  0  0  0  0  0  0  0  0
   26.0243   19.0000   37.1267 C   0  0  0  0  0  0  0  0  0  0  0  0
   26.1638   20.1420   35.0295 C   0  0  0  0  0  0  0  0  0  0  0  0
   26.8124   19.6007   36.1507 C   0  0  0  0  0  0  0  0  0  0  0  0
   21.5907   22.8483   30.5978 O   0  0  0  0  0  0  0  0  0  0  0  0
   22.3040   24.1910   32.1620 O   0  0  0  0  0  0  0  0  0  0  0  0
   22.8140   21.9337   32.3338 N   0  0  0  0  0  0  0  0  0  0  0  0
   26.8128   18.2989   38.4497 Cl  0  0  0  0  0  0  0  0  0  0  0  0
   28.4592   19.5602   36.0748 Cl  0  0  0  0  0  0  0  0  0  0  0  0
  1  6  1  0
  2  3  2  0
  2 10  1  0
  3  9  1  0
  4  6  2  0
  4  7  1  0
  5 24  2  0
  5 25  1  0
  5 26  1  0
  6 11  1  0
  7 12  2  0
  7 26  1  0
  8  9  1  0
  9 17  2  0
 10 13  1  0
 10 19  2  0
 11 14  2  0
 12 14  1  0
 12 16  1  0
 13 16  2  0
 13 26  1  0
 15 18  2  0
 15 20  1  0
 16 20  1  0
 17 19  1  0
 18 21  1  0
 20 22  2  0
 21 23  2  0
 21 27  1  0
 22 23  1  0
 23 28  1  0
M  END
$$$$

     RDKit          3D

 22 24  0  0  0  0  0  0  0  0999 V2000
   22.0069   21.7814   29.5940 C   0  0  0  0  0  0  0  0  0  0  0  0
   22.3478   21.3988   30.9505 C   0  0  0  0  0  0  0  0  0  0  0  0
   22.3801   22.3830   32.0014 C   0  0  0  0  0  0  0  0  0  0  0  0
   22.7770   20.1039   31.1821 C   0  0  0  0  0  0  0  0  0  0  0  0
   22.7796   21.9862   33.2751 C   0  0  0  0  0  0  0  0  0  0  0  0
   23.2606   19.7535   32.4426 C   0  0  0  0  0  0  0  0  0  0  0  0
   23.3060   20.6937   33.5118 C   0  0  0  0  0  0  0  0  0  0  0  0
   23.7785   18.4681   32.6238 C   0  0  0  0  0  0  0  0  0  0  0  0
   24.1417   18.1084   37.1387 C   0  0  0  0  0  0  0  0  0  0  0  0
   24.3334   18.1609   33.8689 C   0  0  0  0  0  0  0  0  0  0  0  0
   24.3519   19.1080   34.9016 C   0  0  0  0  0  0  0  0  0  0  0  0
   24.6703   17.7646   38.3830 C   0  0  0  0  0  0  0  0  0  0  0  0
   24.9424   18.6997   36.1876 C   0  0  0  0  0  0  0  0  0  0  0  0
   25.2954   16.1293   33.1593 C   0  0  0  0  0  0  0  0  0  0  0  0
   26.0192   18.0289   38.6752 C   0  0  0  0  0  0  0  0  0  0  0  0
   26.2698   19.0207   36.4464 C   0  0  0  0  0  0  0  0  0  0  0  0
   26.8265   18.6608   37.6822 C   0  0  0  0  0  0  0  0  0  0  0  0
   21.8485   20.9969   28.6347 O   0  0  0  0  0  0  0  0  0  0  0  0
   22.1609   22.9188   29.2946 O   0  0  0  0  0  0  0  0  0  0  0  0
   25.0426   16.9691   34.0658 O   0  0  0  0  0  0  0  0  0  0  0  0
   23.8699   20.3434   34.7199 N   0  0  0  0  0  0  0  0  0  0  0  0
   27.3242   19.6571   35.4016 Cl  0  0  0  0  0  0  0  0  0  0  0  0
  1  2  1  0
  1 18  2  0
  1 19  1  0
  2  3  2  0
  2  4  1  0
  3  5  1  0
  4  6  2  0
  5  7  2  0
  6  7  1  0
  6  8  1  0
  7 21  1  0
  8 10  2  0
  9 12  2  0
  9 13  1  0
 10 11  1  0
 10 20  1  0
 11 13  1  0
 11 21  2  0
 12 15  1  0
 13 16  2  0
 14 20  1  0
 15 17  2  0
 16 17  1  0
 16 22  1  0
M  END
$$$$

     RDKit          3D

 29 32  0  0  0  0  0  0  0  0999 V2000
   21.2397   17.4005   28.9533 C   0  0  0  0  0  0  0  0  0  0  0  0
   21.7438   19.6968   31.2615 C   0  0  0  0  0  0  0  0  0  0  0  0
   21.9920   18.1090   29.5256 C   0  0  0  0  0  0  0  0  0  0  0  0
   22.2707   18.4706   37.4767 C   0  0  0  0  0  0  0  0  0  0  0  0
   22.2231   20.6879   32.0979 C   0  0  0  0  0  0  0  0  0  0  0  0
   22.6044   19.0689   30.3763 C   0  0  0  0  0  0  0  0  0  0  0  0
   23.0281   20.3460   36.1938 C   0  0  0  0  0  0  0  0  0  0  0  0
   23.3785   19.1943   36.9610 C   0  0  0  0  0  0  0  0  0  0  0  0
   23.5338   21.1194   32.0974 C   0  0  0  0  0  0  0  0  0  0  0  0
   23.8936   16.9668   38.3794 C   0  0  0  0  0  0  0  0  0  0  0  0
   23.7754   22.2803   34.9291 C   0  0  2  0  0  0  0  0  0  0  0  0
   23.9674   19.4222   30.3137 C   0  0  0  0  0  0  0  0  0  0  0  0
   24.0974   21.0311   35.6377 C   0  0  0  0  0  0  0  0  0  0  0  0
   24.0167   22.1328   33.1035 C   0  0  0  0  0  0  0  0  0  0  0  0
   24.4511   20.4485   31.1845 C   0  0  0  0  0  0  0  0  0  0  0  0
   24.3446   23.5904   35.4056 C   0  0  0  0  0  0  0  0  0  0  0  0
   24.9500   17.5976   37.8143 C   0  0  0  0  0  0  0  0  0  0  0  0
   24.7221   18.7802   37.1060 C   0  0  0  0  0  0  0  0  0  0  0  0
   25.4854   20.7792   35.8437 C   0  0  0  0  0  0  0  0  0  0  0  0
   25.8316   19.6155   36.6068 C   0  0  0  0  0  0  0  0  0  0  0  0
   27.2610   19.3312   36.8058 C   0  0  0  0  0  0  0  0  0  0  0  0
   27.6798   18.9211   38.0641 C   0  0  0  0  0  0  0  0  0  0  0  0
   28.2301   19.4791   35.8012 C   0  0  0  0  0  0  0  0  0  0  0  0
   29.0047   18.5898   38.3508 C   0  0  0  0  0  0  0  0  0  0  0  0
   29.5759   19.1519   36.0904 C   0  0  0  0  0  0  0  0  0  0  0  0
   29.9482   18.6945   37.3357 C   0  0  0  0  0  0  0  0  0  0  0  0
   22.6890   17.2598   38.3846 O   0  0  0  0  0  0  0  0  0  0  0  0
   22.9781   22.3164   33.9768 O   0  0  0  0  0  0  0  0  0  0  0  0
   24.0575   15.5768   39.1002 Cl  0  0  0  0  0  0  0  0  0  0  0  0
  1  3  3  0
  2  5  2  0
  2  6  1  0
  3  6  1  0
  4  8  1  0
  4 27  1  0
  5  9  1  0
  6 12  2  0
  7  8  1  0
  7 13  2  0
  8 18  2  0
  9 14  1  0
  9 15  2  0
 10 17  2  0
 10 27  1  0
 10 29  1  0
 11 13  1  0
 11 16  1  1
 11 28  1  0
 12 15  1  0
 13 19  1  0
 14 28  1  0
 17 18  1  0
 18 20  1  0
 19 20  2  0
 20 21  1  0
 21 22  2  0
 21 23  1  0
 22 24  1  0
 23 25  1  0
 24 26  1  0
 25 26  2  0
M  END
$$$$

     RDKit          3D

 29 33  0  0  0  0  0  0  0  0999 V2000
   21.6652   19.2986   30.4903 C   0  0  0  0  0  0  0  0  0  0  0  0
   21.5863   20.5286   29.8757 C   0  0  0  0  0  0  0  0  0  0  0  0
   22.1220   18.8078   37.7022 C   0  0  0  0  0  0  0  0  0  0  0  0
   22.1361   19.2546   31.7846 C   0  0  0  0  0  0  0  0  0  0  0  0
   21.9715   21.6558   30.5206 C   0  0  0  0  0  0  0  0  0  0  0  0
   22.4082   19.5494   36.5905 C   0  0  0  0  0  0  0  0  0  0  0  0
   22.4484   21.5997   31.8382 C   0  0  0  0  0  0  0  0  0  0  0  0
   22.5189   20.3870   32.4556 C   0  0  0  0  0  0  0  0  0  0  0  0
   22.7846   22.7831   32.6322 C   0  0  0  0  0  0  0  0  0  0  0  0
   23.2015   18.2701   38.4116 C   0  0  0  0  0  0  0  0  0  0  0  0
   23.6895   19.7699   36.1631 C   0  0  0  0  0  0  0  0  0  0  0  0
   23.4980   21.1014   34.1559 C   0  0  1  0  0  0  0  0  0  0  0  0
   24.3035   20.4427   35.0778 C   0  0  2  0  0  0  0  0  0  0  0  0
   24.4822   18.4040   38.0096 C   0  0  0  0  0  0  0  0  0  0  0  0
   24.9518   17.7488   33.5717 C   0  0  0  0  0  0  0  0  0  0  0  0
   24.7582   19.0996   36.8380 C   0  0  0  0  0  0  0  0  0  0  0  0
   25.0702   17.0028   32.4122 C   0  0  0  0  0  0  0  0  0  0  0  0
   25.6045   17.6797   38.7717 C   0  0  0  0  0  0  0  0  0  0  0  0
   25.6162   18.9610   33.6789 C   0  0  0  0  0  0  0  0  0  0  0  0
   25.9421   17.4245   31.4036 C   0  0  0  0  0  0  0  0  0  0  0  0
   26.0337   19.2480   36.1208 C   0  0  0  0  0  0  0  0  0  0  0  0
   26.4337   19.4302   32.6464 C   0  0  0  0  0  0  0  0  0  0  0  0
   26.6079   18.6443   31.5078 C   0  0  0  0  0  0  0  0  0  0  0  0
   27.5712   19.0582   30.4608 C   0  0  0  0  0  0  0  0  0  0  0  0
   22.7362   20.1493   33.6404 O   0  0  0  0  0  0  0  0  0  0  0  0
   23.8101   23.2531   34.6834 O   0  0  0  0  0  0  0  0  0  0  0  0
   23.3052   22.3852   33.7685 N   0  0  0  0  0  0  0  0  0  0  0  0
   25.4697   19.7917   34.7946 N   0  0  0  0  0  0  0  0  0  0  0  0
   26.3353   16.3040   30.0335 Cl  0  0  0  0  0  0  0  0  0  0  0  0
  1  2  2  0
  1  4  1  0
  2  5  1  0
  3  6  2  0
  3 10  1  0
  4  8  2  0
  5  7  2  0
  6 11  1  0
  7  8  1  0
  7  9  1  0
  8 25  1  0
  9 27  1  0
 10 14  2  0
 11 13  1  0
 11 16  2  0
 12 13  1  0
 12 25  1  1
 12 27  1  0
 13 28  1  6
 14 16  1  0
 14 18  1  0
 15 17  2  0
 15 19  1  0
 16 21  1  0
 17 20  1  0
 19 22  2  0
 19 28  1  0
 20 23  2  0
 20 29  1  0
 21 28  1  0
 22 23  1  0
 23 24  1  0
 26 27  1  0
M  END
$$$$

     RDKit          3D

 13 13  0  0  0  0  0  0  0  0999 V2000
   22.6943   19.1999   31.5015 C   0  0  0  0  0  0  0  0  0  0  0  0
   22.8861   22.6990   36.3204 C   0  0  0  0  0  0  0  0  0  0  0  0
   23.2025   20.7698   33.4045 C   0  0  0  0  0  0  0  0  0  0  0  0
   23.3771   19.5037   32.8192 C   0  0  0  0  0  0  0  0  0  0  0  0
   23.9348   21.1537   34.5392 C   0  0  0  0  0  0  0  0  0  0  0  0
   23.7184   22.5712   35.0926 C   0  0  0  0  0  0  0  0  0  0  0  0
   24.3249   18.6409   33.2860 C   0  0  0  0  0  0  0  0  0  0  0  0
   24.8847   20.2536   35.0897 C   0  0  0  0  0  0  0  0  0  0  0  0
   25.0462   18.9726   34.4620 C   0  0  0  0  0  0  0  0  0  0  0  0
   25.7191   20.6510   36.2472 C   0  0  0  0  0  0  0  0  0  0  0  0
   26.4370   19.5092   36.8866 C   0  0  0  0  0  0  0  0  0  0  0  0
   22.0067   21.7893   36.6505 O   0  0  0  0  0  0  0  0  0  0  0  0
   23.0123   23.7242   37.0473 O   0  0  0  0  0  0  0  0  0  0  0  0
  1  4  1  0
  2  6  1  0
  2 12  2  0
  2 13  1  0
  3  4  2  0
  3  5  1  0
  4  7  1  0
  5  6  1  0
  5  8  2  0
  7  9  2  0
  8  9  1  0
  8 10  1  0
 10 11  1  0
M  END
$$$$

     RDKit          3D

 26 28  0  0  0  0  0  0  0  0999 V2000
   22.4611   20.2116   32.1458 C   0  0  0  0  0  0  0  0  0  0  0  0
   22.5084   21.6011   32.2171 C   0  0  0  0  0  0  0  0  0  0  0  0
   22.9382   18.9879   36.4489 C   0  0  0  0  0  0  0  0  0  0  0  0
   22.8689   19.4440   33.1858 C   0  0  0  0  0  0  0  0  0  0  0  0
   23.0057   22.2348   33.3634 C   0  0  0  0  0  0  0  0  0  0  0  0
   23.3504   18.3840   37.6105 C   0  0  0  0  0  0  0  0  0  0  0  0
   23.3916   20.0495   34.3046 C   0  0  0  0  0  0  0  0  0  0  0  0
   23.4672   21.4373   34.4000 C   0  0  0  0  0  0  0  0  0  0  0  0
   23.8813   19.2420   35.4236 C   0  0  0  0  0  0  0  0  0  0  0  0
   24.6811   18.0033   37.7588 C   0  0  2  0  0  0  0  0  0  0  0  0
   25.0787   17.4756   39.0995 C   0  0  0  0  0  0  0  0  0  0  0  0
   25.1930   18.7333   35.5344 C   0  0  0  0  0  0  0  0  0  0  0  0
   25.5949   15.9791   32.1488 C   0  0  0  0  0  0  0  0  0  0  0  0
   25.5658   16.7590   33.3267 C   0  0  0  0  0  0  0  0  0  0  0  0
   25.5944   18.1794   36.7326 C   0  0  0  0  0  0  0  0  0  0  0  0
   26.0944   18.0426   33.2842 C   0  0  0  0  0  0  0  0  0  0  0  0
   26.5963   17.7297   30.9301 C   0  0  0  0  0  0  0  0  0  0  0  0
   26.6264   18.5063   32.0585 C   0  0  0  0  0  0  0  0  0  0  0  0
   26.7190   20.1739   34.3745 C   0  0  0  0  0  0  0  0  0  0  0  0
   22.1349   22.3300   31.1880 O   0  0  0  0  0  0  0  0  0  0  0  0
   26.5488   20.8477   33.2759 O   0  0  0  0  0  0  0  0  0  0  0  0
   27.3865   20.6184   35.2865 O   0  0  0  0  0  0  0  0  0  0  0  0
   26.0474   16.5054   31.0214 N   0  0  0  0  0  0  0  0  0  0  0  0
   26.1156   18.8907   34.4579 N   0  0  0  0  0  0  0  0  0  0  0  0
   22.2741   18.0357   38.8209 Cl  0  0  0  0  0  0  0  0  0  0  0  0
   26.9471   20.0830   31.7222 Cl  0  0  0  0  0  0  0  0  0  0  0  0
  1  2  2  0
  1  4  1  0
  2  5  1  0
  2 20  1  0
  3  6  2  0
  3  9  1  0
  4  7  2  0
  5  8  2  0
  6 10  1  0
  6 25  1  0
  7  8  1  0
  7  9  1  0
  9 12  1  0
 10 11  1  1
 10 15  1  0
 12 15  2  0
 12 24  1  0
 13 14  2  0
 13 23  1  0
 14 16  1  0
 16 18  2  0
 16 24  1  0
 17 18  1  0
 17 23  2  0
 18 26  1  0
 19 21  2  0
 19 22  1  0
 19 24  1  0
M  END
$$$$

     RDKit          3D

 31 35  0  0  0  0  0  0  0  0999 V2000
   21.4862   18.6939   29.2961 C   0  0  0  0  0  0  0  0  0  0  0  0
   21.8411   19.4157   30.4422 C   0  0  0  0  0  0  0  0  0  0  0  0
   22.0837   18.9995   28.0833 C   0  0  0  0  0  0  0  0  0  0  0  0
   22.4337   19.1737   36.6595 C   0  0  0  0  0  0  0  0  0  0  0  0
   22.6476   22.1982   32.2010 C   0  0  0  0  0  0  0  0  0  0  0  0
   22.7848   20.4401   30.3599 C   0  0  0  0  0  0  0  0  0  0  0  0
   22.8959   23.3380   34.3556 C   0  0  0  0  0  0  0  0  0  0  0  0
   23.1094   18.4123   37.5970 C   0  0  0  0  0  0  0  0  0  0  0  0
   23.0665   19.8351   35.6605 C   0  0  0  0  0  0  0  0  0  0  0  0
   22.9823   20.0417   27.9748 C   0  0  0  0  0  0  0  0  0  0  0  0
   23.3251   20.7726   29.1147 C   0  0  0  0  0  0  0  0  0  0  0  0
   23.2358   21.1587   31.6169 C   0  0  2  0  0  0  0  0  0  0  0  0
   23.3729   22.3495   33.4391 C   0  0  1  0  0  0  0  0  0  0  0  0
   24.3628   21.3072   33.5937 C   0  0  1  0  0  0  0  0  0  0  0  0
   24.4832   18.2925   37.5112 C   0  0  0  0  0  0  0  0  0  0  0  0
   24.4897   19.8146   35.6137 C   0  0  0  0  0  0  0  0  0  0  0  0
   25.1480   17.3630   38.4493 C   0  0  0  0  0  0  0  0  0  0  0  0
   25.1368   18.5548   31.7637 C   0  0  0  0  0  0  0  0  0  0  0  0
   25.1695   20.6178   34.6382 C   0  0  0  0  0  0  0  0  0  0  0  0
   25.2306   19.0476   36.5439 C   0  0  0  0  0  0  0  0  0  0  0  0
   25.2433   19.9304   31.6645 C   0  0  0  0  0  0  0  0  0  0  0  0
   26.0028   17.7091   31.0918 C   0  0  0  0  0  0  0  0  0  0  0  0
   26.2169   20.5210   30.8534 C   0  0  0  0  0  0  0  0  0  0  0  0
   26.6504   19.1026   36.4876 C   0  0  0  0  0  0  0  0  0  0  0  0
   26.5561   20.6496   34.6380 C   0  0  0  0  0  0  0  0  0  0  0  0
   26.9874   18.3078   30.3212 C   0  0  0  0  0  0  0  0  0  0  0  0
   27.0968   19.6796   30.1819 C   0  0  0  0  0  0  0  0  0  0  0  0
   27.2832   19.8818   35.5249 C   0  0  0  0  0  0  0  0  0  0  0  0
   22.5515   23.2337   35.4272 O   0  0  0  0  0  0  0  0  0  0  0  0
   23.5838   24.6873   34.1854 O   0  0  0  0  0  0  0  0  0  0  0  0
   24.2881   20.7154   32.3095 N   0  0  0  0  0  0  0  0  0  0  0  0
  1  2  2  0
  1  3  1  0
  2  6  1  0
  3 10  2  0
  4  8  2  0
  4  9  1  0
  5 12  1  0
  5 13  1  0
  6 11  2  0
 12  6  1  1
 13  7  1  1
  7 29  2  0
  7 30  1  0
  8 15  1  0
  9 16  2  0
 10 11  1  0
 12 31  1  0
 13 14  1  0
 14 19  1  1
 14 31  1  0
 15 17  1  0
 15 20  2  0
 16 19  1  0
 16 20  1  0
 18 21  2  0
 18 22  1  0
 19 25  2  0
 20 24  1  0
 21 23  1  0
 21 31  1  0
 22 26  1  0
 23 27  1  0
 24 28  2  0
 25 28  1  0
 26 27  2  0
M  END
$$$$

     RDKit          3D

 34 37  0  0  0  0  0  0  0  0999 V2000
   21.9766   19.6658   31.8014 C   0  0  0  0  0  0  0  0  0  0  0  0
   22.0078   25.7292   37.7432 C   0  0  0  0  0  0  0  0  0  0  0  0
   22.7661   25.2741   36.4876 C   0  0  0  0  0  0  0  0  0  0  0  0
   23.1472   20.6191   31.8363 C   0  0  1  0  0  0  0  0  0  0  0  0
   23.1843   23.8897   36.7552 C   0  0  0  0  0  0  0  0  0  0  0  0
   23.9871   20.6765   33.0325 C   0  0  1  0  0  0  0  0  0  0  0  0
   23.9814   21.7840   33.8849 C   0  0  0  0  0  0  0  0  0  0  0  0
   24.4019   23.6494   35.9671 C   0  0  0  0  0  0  0  0  0  0  0  0
   24.6206   17.1040   33.6167 C   0  0  0  0  0  0  0  0  0  0  0  0
   24.6254   18.6823   37.0173 C   0  0  0  0  0  0  0  0  0  0  0  0
   24.6100   19.6284   33.7436 C   0  0  1  0  0  0  0  0  0  0  0  0
   24.5994   21.3890   35.0669 C   0  0  0  0  0  0  0  0  0  0  0  0
   24.9528   22.2705   36.1568 C   0  0  0  0  0  0  0  0  0  0  0  0
   25.0639   15.9042   32.9998 C   0  0  0  0  0  0  0  0  0  0  0  0
   25.1400   17.9587   38.1346 C   0  0  0  0  0  0  0  0  0  0  0  0
   25.0348   18.3236   33.1341 C   0  0  0  0  0  0  0  0  0  0  0  0
   25.4988   19.3609   36.1381 C   0  0  0  0  0  0  0  0  0  0  0  0
   25.9169   15.9545   31.8450 C   0  0  0  0  0  0  0  0  0  0  0  0
   25.8754   18.4159   31.9888 C   0  0  0  0  0  0  0  0  0  0  0  0
   26.2950   17.2200   31.3461 C   0  0  0  0  0  0  0  0  0  0  0  0
   26.2707   19.6735   31.4764 C   0  0  0  0  0  0  0  0  0  0  0  0
   26.5318   17.9722   38.3629 C   0  0  0  0  0  0  0  0  0  0  0  0
   26.8593   19.4031   36.4518 C   0  0  0  0  0  0  0  0  0  0  0  0
   27.1364   17.4152   30.1842 C   0  0  0  0  0  0  0  0  0  0  0  0
   27.0132   19.7593   30.3692 C   0  0  0  0  0  0  0  0  0  0  0  0
   27.3941   18.6953   37.5218 C   0  0  0  0  0  0  0  0  0  0  0  0
   27.5107   18.6156   29.6865 C   0  0  0  0  0  0  0  0  0  0  0  0
   28.4870   18.8102   28.6221 C   0  0  0  0  0  0  0  0  0  0  0  0
   21.0038   20.2297   30.8637 O   0  0  0  0  0  0  0  0  0  0  0  0
   21.1009   24.9577   38.1679 O   0  0  0  0  0  0  0  0  0  0  0  0
   22.3638   26.7647   38.3072 O   0  0  0  0  0  0  0  0  0  0  0  0
   23.4709   22.9561   33.5782 O   0  0  0  0  0  0  0  0  0  0  0  0
   24.9776   20.0454   35.0010 N   0  0  0  0  0  0  0  0  0  0  0  0
   23.4320   21.2104   30.8830 F   0  0  0  0  0  0  0  0  0  0  0  0
  1  4  1  0
  1 29  1  0
  2  3  1  0
  2 30  2  0
  2 31  1  0
  3  5  1  0
  4  6  1  0
  4 34  1  6
  5  8  1  0
  6  7  1  1
  6 11  1  0
  7 12  2  0
  7 32  1  0
  8 13  1  0
  9 14  1  0
  9 16  2  0
 10 15  2  0
 10 17  1  0
 11 16  1  6
 11 33  1  0
 12 13  1  0
 12 33  1  0
 14 18  1  0
 15 22  1  0
 16 19  1  0
 17 23  2  0
 17 33  1  0
 18 20  2  0
 19 20  1  0
 19 21  1  0
 20 24  1  0
 21 25  2  0
 22 26  2  0
 23 26  1  0
 24 27  2  0
 25 27  1  0
 27 28  1  0
M  END
$$$$

     RDKit          3D

 22 25  0  0  0  0  0  0  0  0999 V2000
   21.4396   19.7783   30.1082 C   0  0  0  0  0  0  0  0  0  0  0  0
   21.4573   21.1297   29.7567 C   0  0  0  0  0  0  0  0  0  0  0  0
   21.9703   19.3729   31.3232 C   0  0  0  0  0  0  0  0  0  0  0  0
   22.0850   22.0112   30.5949 C   0  0  0  0  0  0  0  0  0  0  0  0
   22.5032   20.2841   32.2290 C   0  0  0  0  0  0  0  0  0  0  0  0
   22.5687   21.6322   31.8115 C   0  0  0  0  0  0  0  0  0  0  0  0
   23.1508   18.7708   37.0465 C   0  0  0  0  0  0  0  0  0  0  0  0
   23.0402   19.8132   33.5245 C   0  0  0  0  0  0  0  0  0  0  0  0
   23.2743   19.1854   35.6709 C   0  0  0  0  0  0  0  0  0  0  0  0
   24.2385   18.1920   37.6780 C   0  0  0  0  0  0  0  0  0  0  0  0
   24.3317   19.3047   33.6876 C   0  0  0  0  0  0  0  0  0  0  0  0
   24.4685   18.9437   35.0284 C   0  0  0  0  0  0  0  0  0  0  0  0
   25.4367   18.0193   36.9952 C   0  0  0  0  0  0  0  0  0  0  0  0
   25.3222   19.1956   32.6532 C   0  0  0  0  0  0  0  0  0  0  0  0
   25.5809   17.9220   32.1801 C   0  0  0  0  0  0  0  0  0  0  0  0
   25.5705   18.3713   35.6645 C   0  0  0  0  0  0  0  0  0  0  0  0
   25.9813   20.2730   32.1011 C   0  0  0  0  0  0  0  0  0  0  0  0
   26.4525   17.7023   31.1305 C   0  0  0  0  0  0  0  0  0  0  0  0
   26.9232   20.0597   31.0880 C   0  0  0  0  0  0  0  0  0  0  0  0
   27.1277   18.7854   30.6008 C   0  0  0  0  0  0  0  0  0  0  0  0
   22.4641   19.8222   34.7232 N   0  0  0  0  0  0  0  0  0  0  0  0
   22.8945   22.9475   32.8603 S   0  0  0  0  0  0  0  0  0  0  0  0
  1  2  1  0
  1  3  1  0
  2  4  2  0
  3  5  2  0
  4  6  1  0
  5  6  1  0
  5  8  1  0
  6 22  2  0
  7  9  2  0
  7 10  1  0
  8 11  2  0
  8 21  1  0
  9 12  1  0
  9 21  1  0
 10 13  2  0
 11 12  1  0
 11 14  1  0
 12 16  2  0
 13 16  1  0
 14 15  2  0
 14 17  1  0
 15 18  1  0
 17 19  2  0
 18 20  2  0
 19 20  1  0
M  END
$$$$

     RDKit          3D

 21 23  0  0  0  0  0  0  0  0999 V2000
   21.9460   21.1698   31.3646 C   0  0  0  0  0  0  0  0  0  0  0  0
   22.1347   22.5175   31.6271 C   0  0  0  0  0  0  0  0  0  0  0  0
   22.3962   20.2552   32.2670 C   0  0  0  0  0  0  0  0  0  0  0  0
   22.9281   18.3496   37.3475 C   0  0  0  0  0  0  0  0  0  0  0  0
   22.7455   22.9376   32.8054 C   0  0  0  0  0  0  0  0  0  0  0  0
   23.1421   17.3349   38.2271 C   0  0  0  0  0  0  0  0  0  0  0  0
   22.9978   20.6558   33.4412 C   0  0  0  0  0  0  0  0  0  0  0  0
   23.1860   21.9912   33.7034 C   0  0  0  0  0  0  0  0  0  0  0  0
   23.5060   19.6858   34.3893 C   0  0  0  0  0  0  0  0  0  0  0  0
   23.9715   18.8652   36.5680 C   0  0  0  0  0  0  0  0  0  0  0  0
   24.0854   21.1726   36.1590 C   0  0  0  0  0  0  0  0  0  0  0  0
   24.4261   16.8109   38.4085 C   0  0  0  0  0  0  0  0  0  0  0  0
   24.2211   17.8986   32.9945 C   0  0  0  0  0  0  0  0  0  0  0  0
   24.5795   19.0227   33.6754 C   0  0  0  0  0  0  0  0  0  0  0  0
   25.2014   17.3247   32.2131 C   0  0  0  0  0  0  0  0  0  0  0  0
   25.2327   18.4284   36.8696 C   0  0  0  0  0  0  0  0  0  0  0  0
   25.4831   17.3926   37.7352 C   0  0  0  0  0  0  0  0  0  0  0  0
   25.8438   19.5592   33.6542 C   0  0  0  0  0  0  0  0  0  0  0  0
   26.4126   17.8779   32.1129 C   0  0  0  0  0  0  0  0  0  0  0  0
   26.7878   18.9542   32.8427 C   0  0  0  0  0  0  0  0  0  0  0  0
   23.7317   19.8869   35.6452 N   0  0  0  0  0  0  0  0  0  0  0  0
  1  2  2  0
  1  3  1  0
  2  5  1  0
  3  7  2  0
  4  6  2  0
  4 10  1  0
  5  8  2  0
  6 12  1  0
  7  8  1  0
  7  9  1  0
  9 14  1  0
  9 21  1  0
 10 16  2  0
 10 21  1  0
 11 21  1  0
 12 17  2  0
 13 14  2  0
 13 15  1  0
 14 18  1  0
 15 19  2  0
 16 17  1  0
 18 20  2  0
 19 20  1  0
M  END
$$$$

     RDKit          3D

 26 28  0  0  0  0  0  0  0  0999 V2000
   21.7326   20.1885   31.0173 C   0  0  0  0  0  0  0  0  0  0  0  0
   22.2454   22.8274   35.5950 C   0  0  0  0  0  0  0  0  0  0  0  0
   22.2733   23.7468   36.6425 C   0  0  0  0  0  0  0  0  0  0  0  0
   22.6921   20.5989   32.0398 C   0  0  2  0  0  0  0  0  0  0  0  0
   23.3684   21.6312   33.8077 C   0  0  0  0  0  0  0  0  0  0  0  0
   23.4192   22.5122   34.9337 C   0  0  0  0  0  0  0  0  0  0  0  0
   23.4583   24.3668   36.9857 C   0  0  0  0  0  0  0  0  0  0  0  0
   23.6398   19.7644   32.6821 C   0  0  0  0  0  0  0  0  0  0  0  0
   24.1441   18.5277   32.2973 C   0  0  2  0  0  0  0  0  0  0  0  0
   24.1333   19.3415   36.0002 C   0  0  0  0  0  0  0  0  0  0  0  0
   24.4425   17.4127   32.8167 C   0  0  0  0  0  0  0  0  0  0  0  0
   24.6318   23.1131   35.2835 C   0  0  0  0  0  0  0  0  0  0  0  0
   24.6426   23.9748   36.3238 C   0  0  0  0  0  0  0  0  0  0  0  0
   24.9412   18.8964   37.0622 C   0  0  0  0  0  0  0  0  0  0  0  0
   24.7407   19.9658   34.9240 C   0  0  0  0  0  0  0  0  0  0  0  0
   25.1334   18.3200   31.2114 C   0  0  0  0  0  0  0  0  0  0  0  0
   25.3241   16.4679   32.2865 C   0  0  0  0  0  0  0  0  0  0  0  0
   26.1029   20.2084   34.8999 C   0  0  0  0  0  0  0  0  0  0  0  0
   26.2865   19.1449   37.0397 C   0  0  0  0  0  0  0  0  0  0  0  0
   26.8997   19.8078   35.9721 C   0  0  1  0  0  0  0  0  0  0  0  0
   20.9518   21.0612   30.5999 O   0  0  0  0  0  0  0  0  0  0  0  0
   21.5917   18.9406   30.6267 N   0  0  0  0  0  0  0  0  0  0  0  0
   22.5686   21.7227   32.7275 N   0  0  0  0  0  0  0  0  0  0  0  0
   23.9697   20.4099   33.8641 N   0  0  0  0  0  0  0  0  0  0  0  0
   27.2892   18.7076   38.3440 Cl  0  0  0  0  0  0  0  0  0  0  0  0
   28.5021   19.6791   35.8581 Cl  0  0  0  0  0  0  0  0  0  0  0  0
  4  1  1  1
  1 21  2  0
  1 22  1  0
  2  3  2  0
  2  6  1  0
  3  7  1  0
  4  8  1  0
  4 23  1  0
  5  6  1  0
  5 23  2  0
  5 24  1  0
  6 12  2  0
  7 13  2  0
  8  9  1  0
  8 24  1  0
  9 11  1  0
  9 16  1  1
 10 14  1  0
 10 15  1  0
 11 17  1  0
 12 13  1  0
 14 19  2  0
 15 18  2  0
 15 24  1  0
 18 20  1  0
 19 20  1  0
 19 25  1  0
 20 26  1  6
M  END
$$$$

     RDKit          3D

 26 29  0  0  0  0  0  0  0  0999 V2000
   21.5079   18.6151   29.0803 C   0  0  0  0  0  0  0  0  0  0  0  0
   21.9435   18.6558   30.4285 C   0  0  0  0  0  0  0  0  0  0  0  0
   22.3491   19.1969   28.0924 C   0  0  0  0  0  0  0  0  0  0  0  0
   22.4380   23.2516   36.4439 C   0  0  0  0  0  0  0  0  0  0  0  0
   22.4665   22.1000   35.6145 C   0  0  0  0  0  0  0  0  0  0  0  0
   23.1383   19.2836   30.8149 C   0  0  0  0  0  0  0  0  0  0  0  0
   23.3314   18.5045   36.9428 C   0  0  0  0  0  0  0  0  0  0  0  0
   23.3287   20.5940   32.8726 C   0  0  0  0  0  0  0  0  0  0  0  0
   23.6265   18.0020   38.2478 C   0  0  0  0  0  0  0  0  0  0  0  0
   23.5072   19.3587   32.2515 C   0  0  0  0  0  0  0  0  0  0  0  0
   23.5771   19.8529   28.4271 C   0  0  0  0  0  0  0  0  0  0  0  0
   23.6948   21.6297   35.0948 C   0  0  0  0  0  0  0  0  0  0  0  0
   23.6956   23.8520   36.7623 C   0  0  0  0  0  0  0  0  0  0  0  0
   23.9411   19.8980   29.7988 C   0  0  0  0  0  0  0  0  0  0  0  0
   23.7283   20.4554   34.2283 C   0  0  0  0  0  0  0  0  0  0  0  0
   24.0496   19.1113   34.5070 C   0  0  0  0  0  0  0  0  0  0  0  0
   24.3491   18.6267   35.9398 C   0  0  0  0  0  0  0  0  0  0  0  0
   24.4949   17.1507   32.9680 C   0  0  0  0  0  0  0  0  0  0  0  0
   24.8884   22.2458   35.4607 C   0  0  0  0  0  0  0  0  0  0  0  0
   24.9844   17.7013   38.6148 C   0  0  0  0  0  0  0  0  0  0  0  0
   25.7277   18.3990   36.3287 C   0  0  0  0  0  0  0  0  0  0  0  0
   26.0461   17.9495   37.6694 C   0  0  0  0  0  0  0  0  0  0  0  0
   22.8426   21.6643   32.3435 O   0  0  0  0  0  0  0  0  0  0  0  0
   23.9773   18.4012   33.3069 N   0  0  0  0  0  0  0  0  0  0  0  0
   24.9189   23.3180   36.3228 N   0  0  0  0  0  0  0  0  0  0  0  0
   22.0763   18.7833   36.6542 F   0  0  0  0  0  0  0  0  0  0  0  0
  1  2  2  0
  1  3  1  0
  2  6  1  0
  3 11  2  0
  4  5  2  0
  4 13  1  0
  5 12  1  0
  6 10  1  0
  6 14  2  0
  7  9  2  0
  7 17  1  0
  7 26  1  0
  8 10  2  0
  8 15  1  0
  8 23  1  0
  9 20  1  0
 10 24  1  0
 11 14  1  0
 12 15  1  0
 12 19  2  0
 13 25  2  0
 15 16  2  0
 16 17  1  0
 16 24  1  0
 17 21  2  0
 18 24  1  0
 19 25  1  0
 20 22  2  0
 21 22  1  0
M  END
$$$$

     RDKit          3D

 23 25  0  0  0  0  0  0  0  0999 V2000
   21.9319   19.9959   35.6000 C   0  0  0  0  0  0  0  0  0  0  0  0
   22.3064   24.7943   33.1313 C   0  0  0  0  0  0  0  0  0  0  0  0
   22.5174   23.6519   32.3632 C   0  0  0  0  0  0  0  0  0  0  0  0
   22.5815   24.8077   34.4872 C   0  0  0  0  0  0  0  0  0  0  0  0
   23.1037   21.2821   32.1136 C   0  0  0  0  0  0  0  0  0  0  0  0
   23.0168   22.4917   32.9744 C   0  0  0  0  0  0  0  0  0  0  0  0
   23.1393   23.6938   35.0910 C   0  0  0  0  0  0  0  0  0  0  0  0
   23.3361   20.2661   35.6545 C   0  0  0  0  0  0  0  0  0  0  0  0
   23.3570   22.4942   34.3710 C   0  0  0  0  0  0  0  0  0  0  0  0
   23.9882   21.3325   35.0451 C   0  0  0  0  0  0  0  0  0  0  0  0
   24.2948   19.4004   36.2315 C   0  0  0  0  0  0  0  0  0  0  0  0
   25.3491   21.0641   35.1573 C   0  0  0  0  0  0  0  0  0  0  0  0
   25.5117   19.9240   35.9312 C   0  0  0  0  0  0  0  0  0  0  0  0
   26.8307   19.3957   36.4083 C   0  0  0  0  0  0  0  0  0  0  0  0
   27.0502   19.0619   37.7332 C   0  0  0  0  0  0  0  0  0  0  0  0
   27.8754   19.4095   35.5371 C   0  0  0  0  0  0  0  0  0  0  0  0
   28.3537   18.7320   38.1580 C   0  0  0  0  0  0  0  0  0  0  0  0
   29.1511   19.0908   35.9415 C   0  0  0  0  0  0  0  0  0  0  0  0
   29.4052   18.8227   37.2528 C   0  0  0  0  0  0  0  0  0  0  0  0
   22.4081   21.1867   31.0533 O   0  0  0  0  0  0  0  0  0  0  0  0
   23.8472   20.3504   32.3933 O   0  0  0  0  0  0  0  0  0  0  0  0
   23.9644   18.1975   36.8243 N   0  0  0  0  0  0  0  0  0  0  0  0
   30.6764   18.5428   37.6823 F   0  0  0  0  0  0  0  0  0  0  0  0
  1  8  1  0
  2  3  2  0
  2  4  1  0
  3  6  1  0
  4  7  2  0
  5  6  1  0
  5 20  2  0
  5 21  1  0
  6  9  2  0
  7  9  1  0
  8 10  2  0
  8 11  1  0
  9 10  1  0
 10 12  1  0
 11 13  2  0
 11 22  1  0
 12 13  1  0
 13 14  1  0
 14 15  2  0
 14 16  1  0
 15 17  1  0
 16 18  2  0
 17 19  2  0
 18 19  1  0
 19 23  1  0
M  END
$$$$

     RDKit          3D

 36 39  0  0  0  0  0  0  0  0999 V2000
   21.5493   17.7653   28.7741 C   0  0  0  0  0  0  0  0  0  0  0  0
   22.0085   19.3013   36.0814 C   0  0  0  0  0  0  0  0  0  0  0  0
   22.0328   20.3723   36.6027 C   0  0  0  0  0  0  0  0  0  0  0  0
   22.1076   20.9002   29.7770 C   0  0  0  0  0  0  0  0  0  0  0  0
   22.0493   24.9986   35.1917 C   0  0  0  0  0  0  0  0  0  0  0  0
   22.5900   18.7258   28.9641 C   0  0  0  0  0  0  0  0  0  0  0  0
   22.6702   18.9142   31.3302 C   0  0  0  0  0  0  0  0  0  0  0  0
   22.6902   19.5125   30.0357 C   0  0  2  0  0  0  0  0  0  0  0  0
   22.5253   22.6850   35.5623 C   0  0  1  0  0  0  0  0  0  0  0  0
   22.7723   24.9556   34.0136 C   0  0  0  0  0  0  0  0  0  0  0  0
   23.0387   20.7861   32.7345 C   0  0  0  0  0  0  0  0  0  0  0  0
   23.2190   22.6524   34.3437 C   0  0  2  0  0  0  0  0  0  0  0  0
   23.3488   23.7981   33.5514 C   0  0  0  0  0  0  0  0  0  0  0  0
   23.7120   21.4434   33.6736 C   0  0  0  0  0  0  0  0  0  0  0  0
   24.7326   19.1135   32.8031 C   0  0  0  0  0  0  0  0  0  0  0  0
   24.9929   16.7001   33.0793 C   0  0  0  0  0  0  0  0  0  0  0  0
   24.9916   21.1236   34.0381 C   0  0  0  0  0  0  0  0  0  0  0  0
   25.4349   15.4337   32.6913 C   0  0  0  0  0  0  0  0  0  0  0  0
   25.2454   17.8268   32.3113 C   0  0  0  0  0  0  0  0  0  0  0  0
   25.3869   19.8668   33.8387 C   0  0  1  0  0  0  0  0  0  0  0  0
   25.7865   19.6719   36.1571 C   0  0  0  0  0  0  0  0  0  0  0  0
   26.1730   15.2800   31.5204 C   0  0  0  0  0  0  0  0  0  0  0  0
   25.9765   17.6823   31.1378 C   0  0  0  0  0  0  0  0  0  0  0  0
   26.2494   19.6053   34.9475 C   0  0  0  0  0  0  0  0  0  0  0  0
   26.3023   19.6046   37.3192 C   0  0  0  0  0  0  0  0  0  0  0  0
   26.4638   16.4137   30.7295 C   0  0  0  0  0  0  0  0  0  0  0  0
   27.5109   19.3381   34.6587 C   0  0  0  0  0  0  0  0  0  0  0  0
   27.4736   19.2265   37.6202 C   0  0  0  0  0  0  0  0  0  0  0  0
   28.5453   19.0956   35.4659 C   0  0  0  0  0  0  0  0  0  0  0  0
   28.5386   19.0282   36.8396 C   0  0  0  0  0  0  0  0  0  0  0  0
   30.8705   18.6072   36.6210 C   0  0  0  0  0  0  0  0  0  0  0  0
   20.7123   20.6837   29.1726 O   0  0  0  0  0  0  0  0  0  0  0  0
   22.4551   21.6726   36.4874 O   0  0  0  0  0  0  0  0  0  0  0  0
   29.7300   18.7953   37.4539 O   0  0  0  0  0  0  0  0  0  0  0  0
   21.9422   23.8887   35.9239 N   0  0  0  0  0  0  0  0  0  0  0  0
   23.5725   19.5732   32.2706 N   0  0  0  0  0  0  0  0  0  0  0  0
  1  6  1  0
  2  3  2  0
  3 33  1  0
  8  4  1  1
  4 32  1  0
  5 10  1  0
  5 35  2  0
  6  8  1  0
  7  8  1  0
  7 36  1  0
  9 12  1  0
  9 33  1  1
  9 35  1  0
 10 13  2  0
 11 14  2  0
 11 36  1  0
 12 13  1  0
 12 14  1  6
 14 17  1  0
 15 19  1  0
 15 20  1  0
 15 36  1  0
 16 18  2  0
 16 19  1  0
 17 20  1  0
 18 22  1  0
 19 23  2  0
 20 24  1  1
 21 24  2  0
 21 25  1  0
 22 26  2  0
 23 26  1  0
 24 27  1  0
 25 28  2  0
 27 29  2  0
 28 30  1  0
 29 30  1  0
 30 34  1  0
 31 34  1  0
M  END
$$$$

     RDKit          3D

 21 23  0  0  0  0  0  0  0  0999 V2000
   22.2940   20.4471   32.0751 C   0  0  0  0  0  0  0  0  0  0  0  0
   22.6840   19.3477   36.6545 C   0  0  0  0  0  0  0  0  0  0  0  0
   22.5266   19.6785   33.1935 C   0  0  0  0  0  0  0  0  0  0  0  0
   22.6677   21.7920   32.0561 C   0  0  0  0  0  0  0  0  0  0  0  0
   23.1258   18.5230   37.7177 C   0  0  0  0  0  0  0  0  0  0  0  0
   23.1358   20.2006   34.3165 C   0  0  0  0  0  0  0  0  0  0  0  0
   23.2485   22.3815   33.1951 C   0  0  0  0  0  0  0  0  0  0  0  0
   23.4606   19.3232   35.4763 C   0  0  0  0  0  0  0  0  0  0  0  0
   23.5084   21.5434   34.2602 C   0  0  0  0  0  0  0  0  0  0  0  0
   24.2800   17.7474   37.6193 C   0  0  0  0  0  0  0  0  0  0  0  0
   24.5939   18.4740   35.4131 C   0  0  0  0  0  0  0  0  0  0  0  0
   25.2164   17.4168   33.2552 C   0  0  0  0  0  0  0  0  0  0  0  0
   25.4192   18.4423   34.1813 C   0  0  0  0  0  0  0  0  0  0  0  0
   25.9766   17.3093   32.1288 C   0  0  0  0  0  0  0  0  0  0  0  0
   26.3937   19.3687   33.9169 C   0  0  0  0  0  0  0  0  0  0  0  0
   26.9728   18.2203   31.8946 C   0  0  0  0  0  0  0  0  0  0  0  0
   27.1805   19.2799   32.7765 C   0  0  0  0  0  0  0  0  0  0  0  0
   21.5419   20.1520   36.7263 O   0  0  0  0  0  0  0  0  0  0  0  0
   22.4766   22.5813   30.9352 O   0  0  0  0  0  0  0  0  0  0  0  0
   24.9619   17.6856   36.4278 N   0  0  0  0  0  0  0  0  0  0  0  0
   24.0772   16.1866   33.4150 Cl  0  0  0  0  0  0  0  0  0  0  0  0
  1  3  2  0
  1  4  1  0
  2  5  2  0
  2  8  1  0
  2 18  1  0
  3  6  1  0
  4  7  1  0
  4 19  1  0
  5 10  1  0
  6  8  1  0
  6  9  1  0
  7  9  2  0
  8 11  2  0
 10 20  2  0
 11 13  1  0
 11 20  1  0
 12 13  2  0
 12 14  1  0
 12 21  1  0
 13 15  1  0
 14 16  2  0
 15 17  2  0
 16 17  1  0
M  END
$$$$

     RDKit          3D

 28 31  0  0  0  0  0  0  0  0999 V2000
   21.6340   18.4261   29.2088 C   0  0  0  0  0  0  0  0  0  0  0  0
   22.1249   18.6949   27.9553 C   0  0  0  0  0  0  0  0  0  0  0  0
   22.0411   19.1391   30.3182 C   0  0  0  0  0  0  0  0  0  0  0  0
   22.7322   22.1779   31.6767 C   0  0  0  0  0  0  0  0  0  0  0  0
   23.0808   19.7161   27.7983 C   0  0  0  0  0  0  0  0  0  0  0  0
   22.9629   20.1812   30.1628 C   0  0  0  0  0  0  0  0  0  0  0  0
   23.3413   20.9444   31.3474 C   0  0  0  0  0  0  0  0  0  0  0  0
   23.4824   20.4621   28.8974 C   0  0  0  0  0  0  0  0  0  0  0  0
   24.4752   18.0967   32.5908 C   0  0  0  0  0  0  0  0  0  0  0  0
   24.5407   21.4343   33.1781 C   0  0  0  0  0  0  0  0  0  0  0  0
   24.9337   19.2656   36.9753 C   0  0  0  0  0  0  0  0  0  0  0  0
   24.7316   20.2040   35.9740 C   0  0  0  0  0  0  0  0  0  0  0  0
   25.0583   16.8790   32.2338 C   0  0  0  0  0  0  0  0  0  0  0  0
   24.9668   19.2411   32.0113 C   0  0  0  0  0  0  0  0  0  0  0  0
   25.8085   20.6646   35.1789 C   0  0  0  0  0  0  0  0  0  0  0  0
   26.1929   16.8144   31.4429 C   0  0  0  0  0  0  0  0  0  0  0  0
   26.1142   19.1854   31.2470 C   0  0  0  0  0  0  0  0  0  0  0  0
   26.2274   18.7941   37.2877 C   0  0  0  0  0  0  0  0  0  0  0  0
   26.7261   17.9713   30.9360 C   0  0  0  0  0  0  0  0  0  0  0  0
   27.1320   20.2650   35.5324 C   0  0  0  0  0  0  0  0  0  0  0  0
   27.3174   19.3401   36.5983 C   0  0  0  0  0  0  0  0  0  0  0  0
   28.7829   18.3732   38.1847 C   0  0  0  0  0  0  0  0  0  0  0  0
   21.7934   22.7977   31.0825 O   0  0  0  0  0  0  0  0  0  0  0  0
   28.6284   18.9454   36.9292 O   0  0  0  0  0  0  0  0  0  0  0  0
   24.3066   20.5047   32.1838 N   0  0  0  0  0  0  0  0  0  0  0  0
   25.6454   21.5287   34.0795 N   0  0  0  0  0  0  0  0  0  0  0  0
   23.4744   22.7816   32.9892 S   0  0  0  0  0  0  0  0  0  0  0  0
   26.7525   15.2629   30.9442 Cl  0  0  0  0  0  0  0  0  0  0  0  0
  1  2  2  0
  1  3  1  0
  2  5  1  0
  3  6  2  0
  4  7  1  0
  4 23  2  0
  4 27  1  0
  5  8  2  0
  6  7  1  0
  6  8  1  0
  7 25  1  0
  9 13  1  0
  9 14  2  0
 10 25  1  0
 10 26  2  3
 10 27  1  0
 11 12  2  0
 11 18  1  0
 12 15  1  0
 13 16  1  0
 14 17  1  0
 14 25  1  0
 15 20  2  0
 15 26  1  0
 16 19  2  0
 16 28  1  0
 17 19  1  0
 18 21  2  0
 20 21  1  0
 21 24  1  0
 22 24  1  0
M  END
$$$$

     RDKit          3D

 29 32  0  0  0  0  0  0  0  0999 V2000
   21.4050   19.2011   30.3109 C   0  0  0  0  0  0  0  0  0  0  0  0
   21.8332   19.8000   29.1519 C   0  0  0  0  0  0  0  0  0  0  0  0
   22.1126   19.3892   31.5070 C   0  0  0  0  0  0  0  0  0  0  0  0
   23.0764   20.5517   29.1413 C   0  0  0  0  0  0  0  0  0  0  0  0
   23.2645   20.1677   31.5530 C   0  0  0  0  0  0  0  0  0  0  0  0
   23.2097   22.8328   36.5377 C   0  0  0  0  0  0  0  0  0  0  0  0
   23.7274   20.7296   30.3821 C   0  0  0  0  0  0  0  0  0  0  0  0
   23.7232   21.4810   33.6848 C   0  0  0  0  0  0  0  0  0  0  0  0
   24.5539   22.2535   35.9459 C   0  0  0  0  0  0  0  0  0  0  0  0
   24.7093   17.1121   33.7934 C   0  0  0  0  0  0  0  0  0  0  0  0
   25.0085   15.8170   33.3879 C   0  0  0  0  0  0  0  0  0  0  0  0
   25.2051   18.2290   33.0928 C   0  0  0  0  0  0  0  0  0  0  0  0
   25.1099   20.1082   34.6717 C   0  0  2  0  0  0  0  0  0  0  0  0
   25.3061   18.7429   36.6785 C   0  0  0  0  0  0  0  0  0  0  0  0
   25.7624   15.6701   32.2412 C   0  0  0  0  0  0  0  0  0  0  0  0
   25.9291   19.5041   35.6786 C   0  0  0  0  0  0  0  0  0  0  0  0
   26.0139   18.0001   31.9586 C   0  0  0  0  0  0  0  0  0  0  0  0
   26.0900   18.3054   37.7879 C   0  0  0  0  0  0  0  0  0  0  0  0
   26.2132   16.7174   31.4807 C   0  0  0  0  0  0  0  0  0  0  0  0
   26.5724   19.1044   31.2172 C   0  0  0  0  0  0  0  0  0  0  0  0
   27.4511   18.6564   37.8052 C   0  0  0  0  0  0  0  0  0  0  0  0
   27.2781   19.7283   35.6922 C   0  0  0  0  0  0  0  0  0  0  0  0
   28.0361   19.3302   36.7600 C   0  0  0  0  0  0  0  0  0  0  0  0
   22.1997   22.0271   36.6685 O   0  0  0  0  0  0  0  0  0  0  0  0
   22.9151   22.4600   33.5383 O   0  0  0  0  0  0  0  0  0  0  0  0
   23.2326   23.9978   36.9998 O   0  0  0  0  0  0  0  0  0  0  0  0
   23.9356   20.3959   32.8146 N   0  0  0  0  0  0  0  0  0  0  0  0
   24.4421   21.2821   34.8309 N   0  0  0  0  0  0  0  0  0  0  0  0
   24.7846   19.5072   33.4931 N   0  0  0  0  0  0  0  0  0  0  0  0
  1  2  2  0
  1  3  1  0
  2  4  1  0
  3  5  1  0
  4  7  1  0
  5  7  2  0
  5 27  1  0
  6  9  1  0
  6 24  2  0
  6 26  1  0
  8 25  2  0
  8 27  1  0
  8 28  1  0
  9 28  1  0
 10 11  2  0
 10 12  1  0
 11 15  1  0
 12 17  2  0
 12 29  1  0
 13 16  1  1
 13 28  1  0
 13 29  1  0
 14 16  2  0
 14 18  1  0
 15 19  2  0
 16 22  1  0
 17 19  1  0
 17 20  1  0
 18 21  2  0
 21 23  1  0
 22 23  2  0
 27 29  1  0
M  END
$$$$

     RDKit          3D

 31 35  0  0  0  0  0  0  0  0999 V2000
   21.5709   19.7348   29.9541 C   0  0  0  0  0  0  0  0  0  0  0  0
   21.4865   21.1123   29.6823 C   0  0  0  0  0  0  0  0  0  0  0  0
   21.8851   22.0369   30.6495 C   0  0  0  0  0  0  0  0  0  0  0  0
   22.1099   19.3183   31.1949 C   0  0  0  0  0  0  0  0  0  0  0  0
   22.4446   23.8647   32.0547 C   0  0  1  0  0  0  0  0  0  0  0  0
   22.3998   26.2458   32.4536 C   0  0  0  0  0  0  0  0  0  0  0  0
   22.4777   19.3078   36.9861 C   0  0  0  0  0  0  0  0  0  0  0  0
   22.5549   20.3052   32.1265 C   0  0  0  0  0  0  0  0  0  0  0  0
   22.4900   21.6625   31.7956 C   0  0  0  0  0  0  0  0  0  0  0  0
   22.8226   17.0499   41.1057 C   0  0  0  0  0  0  0  0  0  0  0  0
   22.8096   19.5632   35.6449 C   0  0  0  0  0  0  0  0  0  0  0  0
   23.4409   17.0566   39.6992 C   0  0  0  0  0  0  0  0  0  0  0  0
   23.3633   18.4544   37.6983 C   0  0  0  0  0  0  0  0  0  0  0  0
   23.9816   19.0085   35.0966 C   0  0  0  0  0  0  0  0  0  0  0  0
   24.0206   19.3834   33.7517 C   0  0  0  0  0  0  0  0  0  0  0  0
   24.5091   17.9015   37.1263 C   0  0  0  0  0  0  0  0  0  0  0  0
   24.8264   18.1841   35.8290 C   0  0  0  0  0  0  0  0  0  0  0  0
   25.1107   19.1529   32.8518 C   0  0  0  0  0  0  0  0  0  0  0  0
   25.2925   17.8388   32.3824 C   0  0  0  0  0  0  0  0  0  0  0  0
   25.9164   20.1803   32.3595 C   0  0  0  0  0  0  0  0  0  0  0  0
   26.2780   17.5693   31.4569 C   0  0  0  0  0  0  0  0  0  0  0  0
   26.9343   19.8940   31.4284 C   0  0  0  0  0  0  0  0  0  0  0  0
   27.0917   18.5934   30.9542 C   0  0  0  0  0  0  0  0  0  0  0  0
   21.4785   19.8694   37.5448 O   0  0  0  0  0  0  0  0  0  0  0  0
   22.6282   24.9408   32.7641 O   0  0  0  0  0  0  0  0  0  0  0  0
   22.7977   22.6925   32.5583 O   0  0  0  0  0  0  0  0  0  0  0  0
   22.9820   18.1908   38.9954 O   0  0  0  0  0  0  0  0  0  0  0  0
   21.7545   23.4372   30.6493 N   0  0  0  0  0  0  0  0  0  0  0  0
   22.3089   20.3199   34.5807 N   0  0  0  0  0  0  0  0  0  0  0  0
   22.9553   20.0272   33.4251 N   0  0  0  0  0  0  0  0  0  0  0  0
   24.4385   16.4315   32.8303 Cl  0  0  0  0  0  0  0  0  0  0  0  0
  1  2  2  0
  1  4  1  0
  2  3  1  0
  3  9  2  0
  3 28  1  0
  4  8  2  0
  5 25  1  1
  5 26  1  0
  5 28  1  0
  6 25  1  0
  7 11  1  0
  7 13  1  0
  7 24  2  0
  8  9  1  0
  8 30  1  0
  9 26  1  0
 10 12  1  0
 11 14  1  0
 11 29  1  0
 12 27  1  0
 13 16  1  0
 13 27  1  0
 14 15  2  0
 14 17  1  0
 15 18  1  0
 15 30  1  0
 16 17  2  0
 18 19  2  0
 18 20  1  0
 19 21  1  0
 19 31  1  0
 20 22  2  0
 21 23  2  0
 22 23  1  0
 29 30  1  0
M  END
$$$$

     RDKit          3D

 22 23  0  0  0  0  0  0  0  0999 V2000
   21.9421   24.0959   30.9203 C   0  0  0  0  0  0  0  0  0  0  0  0
   22.1578   17.0953   40.4595 C   0  0  0  0  0  0  0  0  0  0  0  0
   22.6897   20.5476   31.2448 C   0  0  1  0  0  0  0  0  0  0  0  0
   22.6217   21.9150   31.5593 C   0  0  0  0  0  0  0  0  0  0  0  0
   22.7892   18.1936   38.1961 C   0  0  0  0  0  0  0  0  0  0  0  0
   22.7954   19.5844   32.2238 C   0  0  0  0  0  0  0  0  0  0  0  0
   23.0116   17.1977   39.1999 C   0  0  0  0  0  0  0  0  0  0  0  0
   23.1363   19.8963   33.5024 C   0  0  0  0  0  0  0  0  0  0  0  0
   23.0247   22.2452   32.8604 C   0  0  0  0  0  0  0  0  0  0  0  0
   23.2509   19.2133   35.9209 C   0  0  0  0  0  0  0  0  0  0  0  0
   23.2502   21.2523   33.8433 C   0  0  0  0  0  0  0  0  0  0  0  0
   23.5927   18.2494   37.0292 C   0  0  0  0  0  0  0  0  0  0  0  0
   24.0964   16.2977   39.0278 C   0  0  0  0  0  0  0  0  0  0  0  0
   24.6369   17.3618   36.8910 C   0  0  0  0  0  0  0  0  0  0  0  0
   24.9030   16.3901   37.8861 C   0  0  0  0  0  0  0  0  0  0  0  0
   22.1027   22.8109   30.6800 O   0  0  0  0  0  0  0  0  0  0  0  0
   22.5039   18.8613   29.2483 O   0  0  0  0  0  0  0  0  0  0  0  0
   23.6100   21.0298   28.9116 O   0  0  0  0  0  0  0  0  0  0  0  0
   21.0279   20.8485   29.0140 N   0  0  0  0  0  0  0  0  0  0  0  0
   22.7551   17.5291   41.6185 N   0  0  0  0  0  0  0  0  0  0  0  0
   23.3008   18.9383   34.5815 N   0  0  0  0  0  0  0  0  0  0  0  0
   22.4951   20.2801   29.5035 S   0  0  0  0  0  0  0  0  0  0  0  0
  1 16  1  0
  2  7  1  0
  2 20  1  0
  3  4  1  0
  3  6  1  0
  3 22  1  1
  4  9  2  0
  4 16  1  0
  5  7  2  0
  5 12  1  0
  6  8  2  0
  7 13  1  0
  8 11  1  0
  8 21  1  0
  9 11  1  0
 10 12  1  0
 10 21  2  3
 12 14  2  0
 13 15  2  0
 14 15  1  0
 17 22  1  0
 18 22  1  0
 19 22  1  0
M  END
$$$$

     RDKit          3D

 25 28  0  0  0  0  0  0  0  0999 V2000
   21.2190   19.0403   29.8295 C   0  0  0  0  0  0  0  0  0  0  0  0
   21.3565   21.1806   30.5783 C   0  0  0  0  0  0  0  0  0  0  0  0
   22.1424   18.6240   30.7006 C   0  0  0  0  0  0  0  0  0  0  0  0
   22.7238   19.5913   31.5809 C   0  0  0  0  0  0  0  0  0  0  0  0
   23.2047   21.3030   33.5956 C   0  0  0  0  0  0  0  0  0  0  0  0
   23.3063   22.2780   34.6642 C   0  0  0  0  0  0  0  0  0  0  0  0
   23.7407   19.2741   32.5025 C   0  0  0  0  0  0  0  0  0  0  0  0
   23.8641   20.0930   33.6582 C   0  0  0  0  0  0  0  0  0  0  0  0
   24.0419   18.9231   35.8913 C   0  0  0  0  0  0  0  0  0  0  0  0
   24.4458   17.0327   32.9074 C   0  0  0  0  0  0  0  0  0  0  0  0
   24.6119   18.1992   32.2104 C   0  0  0  0  0  0  0  0  0  0  0  0
   24.6589   19.6538   34.8471 C   0  0  0  0  0  0  0  0  0  0  0  0
   24.6309   23.7391   35.8533 C   0  0  0  0  0  0  0  0  0  0  0  0
   24.7410   18.5924   37.0671 C   0  0  0  0  0  0  0  0  0  0  0  0
   25.2191   15.9359   32.5685 C   0  0  0  0  0  0  0  0  0  0  0  0
   25.5629   18.2820   31.1567 C   0  0  0  0  0  0  0  0  0  0  0  0
   26.1594   15.9843   31.5358 C   0  0  0  0  0  0  0  0  0  0  0  0
   26.0901   18.8988   37.1539 C   0  0  0  0  0  0  0  0  0  0  0  0
   26.0423   19.9018   34.9564 C   0  0  0  0  0  0  0  0  0  0  0  0
   26.3498   17.1803   30.8270 C   0  0  0  0  0  0  0  0  0  0  0  0
   26.7570   19.5332   36.1057 C   0  0  0  0  0  0  0  0  0  0  0  0
   24.3187   23.1637   34.5914 O   0  0  0  0  0  0  0  0  0  0  0  0
   20.9305   20.3022   29.6688 N   0  0  0  0  0  0  0  0  0  0  0  0
   22.1678   20.7937   31.5722 N   0  0  0  0  0  0  0  0  0  0  0  0
   22.4485   21.6835   32.5414 N   0  0  0  0  0  0  0  0  0  0  0  0
  1  3  1  0
  1 23  2  0
  2 23  1  0
  2 24  1  0
  3  4  2  0
  4  7  1  0
  4 24  1  0
  5  6  1  0
  5  8  1  0
  5 25  2  0
  6 22  1  0
  7  8  1  0
  7 11  1  0
  8 12  1  0
  9 12  2  0
  9 14  1  0
 10 11  2  0
 10 15  1  0
 11 16  1  0
 12 19  1  0
 13 22  1  0
 14 18  2  0
 15 17  2  0
 16 20  2  0
 17 20  1  0
 18 21  1  0
 19 21  2  0
 24 25  1  0
M  END
$$$$

     RDKit          3D

 25 28  0  0  0  0  0  0  0  0999 V2000
   22.4509   22.1829   35.8451 C   0  0  0  0  0  0  0  0  0  0  0  0
   22.6462   21.5371   32.4204 C   0  0  0  0  0  0  0  0  0  0  0  0
   22.5244   23.3928   36.6268 C   0  0  0  0  0  0  0  0  0  0  0  0
   22.9008   19.0979   30.3095 C   0  0  0  0  0  0  0  0  0  0  0  0
   23.3433   20.4093   33.1195 C   0  0  0  0  0  0  0  0  0  0  0  0
   23.5787   18.4517   31.4651 C   0  0  0  0  0  0  0  0  0  0  0  0
   23.7044   19.0770   32.7094 C   0  0  0  0  0  0  0  0  0  0  0  0
   23.6464   21.6725   35.2468 C   0  0  0  0  0  0  0  0  0  0  0  0
   23.7478   20.4367   34.4660 C   0  0  0  0  0  0  0  0  0  0  0  0
   23.7323   24.0498   36.6891 C   0  0  0  0  0  0  0  0  0  0  0  0
   24.0869   17.1681   31.3154 C   0  0  0  0  0  0  0  0  0  0  0  0
   24.0794   18.3081   37.0303 C   0  0  0  0  0  0  0  0  0  0  0  0
   24.3523   18.4333   33.7536 C   0  0  0  0  0  0  0  0  0  0  0  0
   24.7043   16.5186   32.3681 C   0  0  0  0  0  0  0  0  0  0  0  0
   24.5781   17.9345   38.2589 C   0  0  0  0  0  0  0  0  0  0  0  0
   24.8201   17.1251   33.6200 C   0  0  0  0  0  0  0  0  0  0  0  0
   24.8791   18.9023   36.0751 C   0  0  0  0  0  0  0  0  0  0  0  0
   24.8087   22.4093   35.3364 C   0  0  0  0  0  0  0  0  0  0  0  0
   24.8478   23.5903   36.0292 C   0  0  0  0  0  0  0  0  0  0  0  0
   25.9344   18.1126   38.5351 C   0  0  0  0  0  0  0  0  0  0  0  0
   26.2197   19.0871   36.3753 C   0  0  0  0  0  0  0  0  0  0  0  0
   26.7472   18.6804   37.5963 C   0  0  0  0  0  0  0  0  0  0  0  0
   21.5831   21.4038   31.8903 O   0  0  0  0  0  0  0  0  0  0  0  0
   23.1935   22.6890   32.4215 O   0  0  0  0  0  0  0  0  0  0  0  0
   24.3545   19.2704   34.8487 N   0  0  0  0  0  0  0  0  0  0  0  0
  1  3  2  0
  1  8  1  0
  2  5  1  0
  2 23  2  0
  2 24  1  0
  3 10  1  0
  4  6  1  0
  5  7  1  0
  5  9  2  0
  6  7  2  0
  6 11  1  0
  7 13  1  0
  8  9  1  0
  8 18  2  0
  9 25  1  0
 10 19  2  0
 11 14  2  0
 12 15  2  0
 12 17  1  0
 13 16  2  0
 13 25  1  0
 14 16  1  0
 15 20  1  0
 17 21  2  0
 17 25  1  0
 18 19  1  0
 20 22  2  0
 21 22  1  0
M  END
$$$$

     RDKit          3D

 23 25  0  0  0  0  0  0  0  0999 V2000
   22.3096   20.7395   30.5896 C   0  0  0  0  0  0  0  0  0  0  0  0
   22.6953   22.2864   32.3823 C   0  0  0  0  0  0  0  0  0  0  0  0
   22.5456   23.5743   32.8995 C   0  0  0  0  0  0  0  0  0  0  0  0
   22.9538   18.2983   30.8370 C   0  0  0  0  0  0  0  0  0  0  0  0
   22.9525   19.9066   36.2700 C   0  0  0  0  0  0  0  0  0  0  0  0
   22.8793   23.8536   34.2041 C   0  0  0  0  0  0  0  0  0  0  0  0
   23.1803   19.7634   31.2686 C   0  0  0  0  0  0  0  0  0  0  0  0
   23.1698   19.9023   32.7411 C   0  0  0  0  0  0  0  0  0  0  0  0
   23.1145   21.2358   33.2261 C   0  0  0  0  0  0  0  0  0  0  0  0
   23.3274   18.9060   37.0819 C   0  0  0  0  0  0  0  0  0  0  0  0
   23.4531   21.5737   34.5866 C   0  0  0  0  0  0  0  0  0  0  0  0
   23.3313   22.8685   35.0389 C   0  0  0  0  0  0  0  0  0  0  0  0
   23.8987   16.4259   38.4747 C   0  0  0  0  0  0  0  0  0  0  0  0
   23.9127   20.5472   35.4966 C   0  0  0  0  0  0  0  0  0  0  0  0
   24.4343   17.5471   39.4292 C   0  0  0  0  0  0  0  0  0  0  0  0
   24.6116   16.1472   37.4794 C   0  0  0  0  0  0  0  0  0  0  0  0
   24.6358   18.4762   37.1282 C   0  0  0  0  0  0  0  0  0  0  0  0
   24.6246   20.1378   30.7151 C   0  0  0  0  0  0  0  0  0  0  0  0
   25.2139   20.1616   35.5293 C   0  0  0  0  0  0  0  0  0  0  0  0
   25.5849   19.1147   36.3761 C   0  0  0  0  0  0  0  0  0  0  0  0
   26.4083   17.1838   38.0702 C   0  0  0  0  0  0  0  0  0  0  0  0
   22.3254   22.0543   31.0946 N   0  0  0  0  0  0  0  0  0  0  0  0
   25.0082   17.4424   37.9955 N   0  0  0  0  0  0  0  0  0  0  0  0
  1  7  1  0
  1 22  1  0
  2  3  1  0
  2  9  1  0
  2 22  2  0
  3  6  2  0
  4  7  1  0
  5 10  2  0
  5 14  1  0
  6 12  1  0
  7  8  1  0
  7 18  1  0
  8  9  1  0
  9 11  1  0
 10 17  1  0
 11 12  2  0
 11 14  1  0
 13 15  1  0
 13 16  1  0
 14 19  2  0
 16 23  1  0
 17 20  2  0
 17 23  1  0
 19 20  1  0
 21 23  1  0
M  END
$$$$

     RDKit          3D

 26 29  0  0  0  0  0  0  0  0999 V2000
   21.6336   19.5824   30.5415 C   0  0  0  0  0  0  0  0  0  0  0  0
   21.6451   20.9129   30.0720 C   0  0  0  0  0  0  0  0  0  0  0  0
   22.1697   19.2774   31.8105 C   0  0  0  0  0  0  0  0  0  0  0  0
   22.0939   21.9254   30.9293 C   0  0  0  0  0  0  0  0  0  0  0  0
   22.6486   20.3058   32.6476 C   0  0  0  0  0  0  0  0  0  0  0  0
   22.6211   21.6130   32.1845 C   0  0  0  0  0  0  0  0  0  0  0  0
   23.1109   22.6757   33.1056 C   0  0  0  0  0  0  0  0  0  0  0  0
   23.7288   18.3189   37.8903 C   0  0  0  0  0  0  0  0  0  0  0  0
   23.9286   19.5174   35.7595 C   0  0  2  0  0  0  0  0  0  0  0  0
   24.4499   17.6505   38.8790 C   0  0  0  0  0  0  0  0  0  0  0  0
   24.2437   19.8251   34.4677 C   0  0  1  0  0  0  0  0  0  0  0  0
   24.5582   18.9076   36.9035 C   0  0  0  0  0  0  0  0  0  0  0  0
   24.8418   17.8139   33.2980 C   0  0  0  0  0  0  0  0  0  0  0  0
   25.1130   19.1418   33.5373 C   0  0  0  0  0  0  0  0  0  0  0  0
   25.6149   17.0806   32.4338 C   0  0  0  0  0  0  0  0  0  0  0  0
   25.7469   17.5754   38.9286 C   0  0  0  0  0  0  0  0  0  0  0  0
   25.9457   18.8233   37.0324 C   0  0  0  0  0  0  0  0  0  0  0  0
   26.0964   19.7735   32.8154 C   0  0  0  0  0  0  0  0  0  0  0  0
   26.6235   17.6835   31.7294 C   0  0  0  0  0  0  0  0  0  0  0  0
   26.4906   18.2148   38.0724 C   0  0  0  0  0  0  0  0  0  0  0  0
   26.8782   19.0373   31.9163 C   0  0  0  0  0  0  0  0  0  0  0  0
   22.2690   23.4970   33.5343 O   0  0  0  0  0  0  0  0  0  0  0  0
   24.3314   22.7087   33.4028 O   0  0  0  0  0  0  0  0  0  0  0  0
   23.0823   20.1044   33.9287 N   0  0  0  0  0  0  0  0  0  0  0  0
   22.3922   19.7359   35.3296 S   0  0  0  0  0  0  0  0  0  0  0  0
   25.1543   15.4338   32.4639 Cl  0  0  0  0  0  0  0  0  0  0  0  0
  1  2  2  0
  1  3  1  0
  2  4  1  0
  3  5  2  0
  4  6  2  0
  5  6  1  0
  5 24  1  0
  6  7  1  0
  7 22  2  0
  7 23  1  0
  8 10  1  0
  8 12  1  0
  9 11  1  0
  9 12  1  6
  9 25  1  0
 10 16  1  0
 11 14  1  6
 11 24  1  0
 12 17  2  0
 13 14  2  0
 13 15  1  0
 14 18  1  0
 15 19  2  0
 15 26  1  0
 16 20  2  0
 17 20  1  0
 18 21  2  0
 19 21  1  0
 24 25  1  0
M  END
$$$$

     RDKit          3D

 20 22  0  0  0  0  0  0  0  0999 V2000
   19.6735   25.1942   35.7283 C   0  0  0  0  0  0  0  0  0  0  0  0
   21.8285   24.1357   35.4521 C   0  0  0  0  0  0  0  0  0  0  0  0
   22.4304   22.8761   35.6410 C   0  0  0  0  0  0  0  0  0  0  0  0
   22.5000   24.8254   34.4194 C   0  0  0  0  0  0  0  0  0  0  0  0
   23.3960   21.1316   32.9822 C   0  0  0  0  0  0  0  0  0  0  0  0
   23.5354   22.8073   34.7708 C   0  0  2  0  0  0  0  0  0  0  0  0
   23.6521   23.9505   34.0046 C   0  0  0  0  0  0  0  0  0  0  0  0
   23.7420   19.9191   32.4151 C   0  0  0  0  0  0  0  0  0  0  0  0
   23.8788   21.4723   34.1983 C   0  0  0  0  0  0  0  0  0  0  0  0
   24.6496   19.1521   33.1071 C   0  0  0  0  0  0  0  0  0  0  0  0
   24.8921   16.6936   33.1910 C   0  0  0  0  0  0  0  0  0  0  0  0
   24.7337   20.6807   34.9031 C   0  0  0  0  0  0  0  0  0  0  0  0
   25.1052   17.9175   32.5189 C   0  0  0  0  0  0  0  0  0  0  0  0
   25.1630   19.4881   34.3381 C   0  0  0  0  0  0  0  0  0  0  0  0
   25.4293   15.5208   32.5832 C   0  0  0  0  0  0  0  0  0  0  0  0
   25.7876   17.9751   31.3148 C   0  0  0  0  0  0  0  0  0  0  0  0
   26.1176   15.6418   31.3506 C   0  0  0  0  0  0  0  0  0  0  0  0
   26.3305   16.8669   30.7342 C   0  0  0  0  0  0  0  0  0  0  0  0
   20.7998   24.6265   36.1541 O   0  0  0  0  0  0  0  0  0  0  0  0
   22.0757   21.9380   36.4411 O   0  0  0  0  0  0  0  0  0  0  0  0
  1 19  1  0
  2  3  1  0
  2  4  1  0
  2 19  1  0
  3  6  1  0
  3 20  2  0
  4  7  1  0
  5  8  2  0
  5  9  1  0
  6  7  1  0
  6  9  1  6
  8 10  1  0
  9 12  2  0
 10 13  1  0
 10 14  2  0
 11 13  2  0
 11 15  1  0
 12 14  1  0
 13 16  1  0
 15 17  2  0
 16 18  2  0
 17 18  1  0
M  END
$$$$

     RDKit          3D

 36 40  0  0  0  0  0  0  0  0999 V2000
   21.8661   15.8665   39.9884 C   0  0  0  0  0  0  0  0  0  0  0  0
   22.1488   21.6505   29.8670 C   0  0  0  0  0  0  0  0  0  0  0  0
   22.3433   16.3771   38.7554 C   0  0  0  0  0  0  0  0  0  0  0  0
   22.3229   16.4082   41.2086 C   0  0  0  0  0  0  0  0  0  0  0  0
   22.4137   20.2416   32.2169 C   0  0  0  0  0  0  0  0  0  0  0  0
   22.6751   19.4842   33.3471 C   0  0  0  0  0  0  0  0  0  0  0  0
   22.8458   21.5640   32.1570 C   0  0  0  0  0  0  0  0  0  0  0  0
   23.0488   18.9380   36.7421 C   0  0  0  0  0  0  0  0  0  0  0  0
   23.1696   21.0385   28.9244 C   0  0  0  0  0  0  0  0  0  0  0  0
   23.2803   17.4054   38.7170 C   0  0  0  0  0  0  0  0  0  0  0  0
   23.3006   17.3901   41.1732 C   0  0  0  0  0  0  0  0  0  0  0  0
   23.3730   20.0408   34.4386 C   0  0  0  0  0  0  0  0  0  0  0  0
   23.2708   23.0322   36.3480 C   0  0  0  0  0  0  0  0  0  0  0  0
   23.5271   22.1530   33.2519 C   0  0  0  0  0  0  0  0  0  0  0  0
   23.7749   17.8780   39.9627 C   0  0  0  0  0  0  0  0  0  0  0  0
   23.7128   19.1654   35.5597 C   0  0  0  0  0  0  0  0  0  0  0  0
   23.7171   21.4130   34.4336 C   0  0  0  0  0  0  0  0  0  0  0  0
   24.3062   22.0819   35.6713 C   0  0  0  0  0  0  0  0  0  0  0  0
   24.8189   17.5315   36.6545 C   0  0  0  0  0  0  0  0  0  0  0  0
   24.8431   18.3290   35.4776 C   0  0  0  0  0  0  0  0  0  0  0  0
   25.2546   16.2500   33.1767 C   0  0  0  0  0  0  0  0  0  0  0  0
   25.5630   15.4821   32.0252 C   0  0  0  0  0  0  0  0  0  0  0  0
   25.7418   17.5309   33.3000 C   0  0  0  0  0  0  0  0  0  0  0  0
   26.3180   16.1014   30.9706 C   0  0  0  0  0  0  0  0  0  0  0  0
   26.4706   18.1048   32.2801 C   0  0  0  0  0  0  0  0  0  0  0  0
   26.5055   19.4823   34.0786 C   0  0  0  0  0  0  0  0  0  0  0  0
   26.7441   17.4250   31.0748 C   0  0  0  0  0  0  0  0  0  0  0  0
   26.9525   19.4077   32.6973 C   0  0  0  0  0  0  0  0  0  0  0  0
   22.0567   19.5943   37.1879 O   0  0  0  0  0  0  0  0  0  0  0  0
   22.1464   22.4452   36.6937 O   0  0  0  0  0  0  0  0  0  0  0  0
   22.6974   22.2764   31.0075 O   0  0  0  0  0  0  0  0  0  0  0  0
   23.7004   24.0101   37.0079 O   0  0  0  0  0  0  0  0  0  0  0  0
   25.5818   16.4867   36.8997 O   0  0  0  0  0  0  0  0  0  0  0  0
   26.9330   20.3629   34.8647 O   0  0  0  0  0  0  0  0  0  0  0  0
   23.7030   17.9270   37.4378 N   0  0  0  0  0  0  0  0  0  0  0  0
   25.6993   18.4159   34.3959 N   0  0  0  0  0  0  0  0  0  0  0  0
  1  3  2  0
  1  4  1  0
  2  9  1  0
  2 31  1  0
  3 10  1  0
  4 11  2  0
  5  6  2  0
  5  7  1  0
  6 12  1  0
  7 14  2  0
  7 31  1  0
  8 16  1  0
  8 29  2  0
  8 35  1  0
 10 15  2  0
 10 35  1  0
 11 15  1  0
 12 16  1  0
 12 17  2  0
 13 18  1  0
 13 30  2  0
 13 32  1  0
 14 17  1  0
 16 20  2  0
 17 18  1  0
 19 20  1  0
 19 33  2  0
 19 35  1  0
 20 36  1  0
 21 22  2  0
 21 23  1  0
 22 24  1  0
 23 25  2  0
 23 36  1  0
 24 27  2  0
 25 27  1  0
 25 28  1  0
 26 28  1  0
 26 34  2  0
 26 36  1  0
M  END
$$$$

     RDKit          3D

 30 33  0  0  0  0  0  0  0  0999 V2000
   21.6129   18.3556   29.6845 C   0  0  0  0  0  0  0  0  0  0  0  0
   22.0141   18.4877   28.3749 C   0  0  0  0  0  0  0  0  0  0  0  0
   21.9967   19.2066   30.7040 C   0  0  0  0  0  0  0  0  0  0  0  0
   22.4012   19.4744   35.7016 C   0  0  0  0  0  0  0  0  0  0  0  0
   22.6969   22.0553   32.4197 C   0  0  0  0  0  0  0  0  0  0  0  0
   22.9388   19.5430   28.0944 C   0  0  0  0  0  0  0  0  0  0  0  0
   22.8727   20.2564   30.4380 C   0  0  0  0  0  0  0  0  0  0  0  0
   22.8980   24.3031   37.0039 C   0  0  0  0  0  0  0  0  0  0  0  0
   23.1860   23.2649   34.7363 C   0  0  1  0  0  0  0  0  0  0  0  0
   23.3421   20.4325   29.1098 C   0  0  0  0  0  0  0  0  0  0  0  0
   23.3015   22.0625   33.6872 C   0  0  2  0  0  0  0  0  0  0  0  0
   23.4551   23.1057   36.1843 C   0  0  0  0  0  0  0  0  0  0  0  0
   23.8891   19.4631   35.7998 C   0  0  0  0  0  0  0  0  0  0  0  0
   24.1850   20.9316   33.7174 C   0  0  2  0  0  0  0  0  0  0  0  0
   24.4559   18.6908   36.8311 C   0  0  0  0  0  0  0  0  0  0  0  0
   24.3362   20.5828   32.3599 C   0  0  0  0  0  0  0  0  0  0  0  0
   24.7173   20.2216   34.9325 C   0  0  0  0  0  0  0  0  0  0  0  0
   25.4103   19.8716   31.6161 C   0  0  0  0  0  0  0  0  0  0  0  0
   25.4737   18.4874   31.6706 C   0  0  0  0  0  0  0  0  0  0  0  0
   25.8245   18.7790   37.1167 C   0  0  0  0  0  0  0  0  0  0  0  0
   26.0414   20.4142   35.3109 C   0  0  0  0  0  0  0  0  0  0  0  0
   26.4433   17.7577   30.9664 C   0  0  0  0  0  0  0  0  0  0  0  0
   26.3768   20.5793   30.8815 C   0  0  0  0  0  0  0  0  0  0  0  0
   26.6140   19.6650   36.3444 C   0  0  0  0  0  0  0  0  0  0  0  0
   27.4307   18.4633   30.2653 C   0  0  0  0  0  0  0  0  0  0  0  0
   27.3795   19.8682   30.1728 C   0  0  0  0  0  0  0  0  0  0  0  0
   23.9587   24.5365   34.2012 O   0  0  0  0  0  0  0  0  0  0  0  0
   23.2818   21.0656   31.6385 N   0  0  0  0  0  0  0  0  0  0  0  0
   21.6924   17.2093   27.2704 Cl  0  0  0  0  0  0  0  0  0  0  0  0
   24.3714   17.5753   32.6641 Cl  0  0  0  0  0  0  0  0  0  0  0  0
  1  2  2  0
  1  3  1  0
  2  6  1  0
  2 29  1  0
  3  7  2  0
  4 13  1  0
 11  5  1  6
  5 28  1  0
  6 10  2  0
  7 10  1  0
  7 28  1  0
  8 12  1  0
  9 11  1  0
  9 12  1  0
  9 27  1  6
 11 14  1  0
 13 15  2  0
 13 17  1  0
 14 16  1  0
 14 17  1  1
 15 20  1  0
 16 18  1  0
 16 28  1  0
 17 21  2  0
 18 19  2  0
 18 23  1  0
 19 22  1  0
 19 30  1  0
 20 24  2  0
 21 24  1  0
 22 25  1  0
 23 26  1  0
 25 26  2  0
M  END
$$$$

     RDKit          3D

 28 30  0  0  0  0  0  0  0  0999 V2000
   21.7380   23.5765   31.0992 C   0  0  0  0  0  0  0  0  0  0  0  0
   22.2028   22.2483   31.0986 C   0  0  0  0  0  0  0  0  0  0  0  0
   22.0253   24.4019   32.2294 C   0  0  0  0  0  0  0  0  0  0  0  0
   22.6890   23.8929   33.3585 C   0  0  0  0  0  0  0  0  0  0  0  0
   22.8973   21.7313   32.2188 C   0  0  0  0  0  0  0  0  0  0  0  0
   23.1870   22.5657   33.3495 C   0  0  0  0  0  0  0  0  0  0  0  0
   23.2562   23.1974   36.6161 C   0  0  0  0  0  0  0  0  0  0  0  0
   23.9536   22.0411   34.4354 C   0  0  0  0  0  0  0  0  0  0  0  0
   24.1932   19.9757   33.1090 C   0  0  0  0  0  0  0  0  0  0  0  0
   24.4006   17.4228   33.2951 C   0  0  0  0  0  0  0  0  0  0  0  0
   24.3598   19.4297   36.5087 C   0  0  0  0  0  0  0  0  0  0  0  0
   24.3382   20.6951   34.3609 C   0  0  0  0  0  0  0  0  0  0  0  0
   24.4370   22.8973   35.6846 C   0  0  0  0  0  0  0  0  0  0  0  0
   24.8898   18.6823   32.8034 C   0  0  0  0  0  0  0  0  0  0  0  0
   25.2078   16.2650   32.9123 C   0  0  0  0  0  0  0  0  0  0  0  0
   25.0735   18.7059   37.5185 C   0  0  0  0  0  0  0  0  0  0  0  0
   25.0486   20.0593   35.4659 C   0  0  0  0  0  0  0  0  0  0  0  0
   25.9842   18.8127   31.9358 C   0  0  0  0  0  0  0  0  0  0  0  0
   26.2776   16.4211   31.8521 C   0  0  0  0  0  0  0  0  0  0  0  0
   26.4522   20.1397   35.5027 C   0  0  0  0  0  0  0  0  0  0  0  0
   26.6309   17.6733   31.4241 C   0  0  0  0  0  0  0  0  0  0  0  0
   26.4815   18.7877   37.4901 C   0  0  0  0  0  0  0  0  0  0  0  0
   27.1778   19.4866   36.4982 C   0  0  0  0  0  0  0  0  0  0  0  0
   27.2637   18.0626   38.4860 C   0  0  0  0  0  0  0  0  0  0  0  0
   22.2525   22.3885   36.6869 O   0  0  0  0  0  0  0  0  0  0  0  0
   23.4221   20.5983   32.1318 O   0  0  0  0  0  0  0  0  0  0  0  0
   23.2171   24.3076   37.1595 O   0  0  0  0  0  0  0  0  0  0  0  0
   23.1123   19.1166   36.3515 F   0  0  0  0  0  0  0  0  0  0  0  0
  1  2  1  0
  1  3  1  0
  2  5  2  0
  3  4  2  0
  4  6  1  0
  5  6  1  0
  5 26  1  0
  6  8  1  0
  7 13  1  0
  7 25  2  0
  7 27  1  0
  8 12  2  3
  8 13  1  0
  9 12  1  0
  9 14  1  0
 10 14  1  0
 10 15  1  0
 11 16  2  0
 11 17  1  0
 11 28  1  0
 12 17  1  0
 14 18  2  0
 15 19  1  0
 16 22  1  0
 17 20  2  0
 18 21  1  0
 19 21  2  0
 20 23  1  0
 22 23  2  0
 22 24  1  0
M  END
$$$$

     RDKit          3D

 26 29  0  0  0  0  0  0  0  0999 V2000
   21.2990   20.2698   30.1945 C   0  0  0  0  0  0  0  0  0  0  0  0
   21.8716   19.7553   31.3709 C   0  0  0  0  0  0  0  0  0  0  0  0
   22.0886   22.4572   30.7452 C   0  0  0  0  0  0  0  0  0  0  0  0
   22.5568   19.8034   34.6828 C   0  0  0  0  0  0  0  0  0  0  0  0
   22.5594   20.5615   32.2303 C   0  0  0  0  0  0  0  0  0  0  0  0
   22.6961   21.9390   31.9408 C   0  0  0  0  0  0  0  0  0  0  0  0
   23.1999   19.9171   33.4223 C   0  0  2  0  0  0  0  0  0  0  0  0
   23.4529   18.6790   36.8798 C   0  0  0  0  0  0  0  0  0  0  0  0
   23.4468   19.0526   35.5091 C   0  0  0  0  0  0  0  0  0  0  0  0
   24.6218   18.1273   37.4053 C   0  0  0  0  0  0  0  0  0  0  0  0
   24.5877   18.7511   34.6994 C   0  0  0  0  0  0  0  0  0  0  0  0
   24.8276   17.5765   38.7573 C   0  0  0  0  0  0  0  0  0  0  0  0
   25.2904   19.0678   32.3568 C   0  0  0  0  0  0  0  0  0  0  0  0
   25.5553   17.8505   31.7447 C   0  0  0  0  0  0  0  0  0  0  0  0
   25.7940   18.3475   35.2970 C   0  0  0  0  0  0  0  0  0  0  0  0
   25.9628   20.2052   31.9165 C   0  0  0  0  0  0  0  0  0  0  0  0
   26.4692   17.7541   30.6892 C   0  0  0  0  0  0  0  0  0  0  0  0
   26.8795   20.1093   30.8818 C   0  0  0  0  0  0  0  0  0  0  0  0
   27.1118   18.9175   30.2494 C   0  0  0  0  0  0  0  0  0  0  0  0
   23.3350   22.7903   32.7652 O   0  0  0  0  0  0  0  0  0  0  0  0
   21.4272   21.5862   29.9010 N   0  0  0  0  0  0  0  0  0  0  0  0
   24.3540   19.1747   33.4107 N   0  0  0  0  0  0  0  0  0  0  0  0
   25.7176   17.9512   36.6731 N   0  0  0  0  0  0  0  0  0  0  0  0
   25.5951   16.5050   38.6827 F   0  0  0  0  0  0  0  0  0  0  0  0
   24.6623   16.4270   32.2341 Cl  0  0  0  0  0  0  0  0  0  0  0  0
   28.1957   18.8254   28.9543 Cl  0  0  0  0  0  0  0  0  0  0  0  0
  1  2  1  0
  1 21  2  0
  2  5  1  0
  3  6  1  0
  3 21  1  0
  4  7  1  0
  4  9  1  0
  5  6  2  0
  7  5  1  6
  6 20  1  0
  7 22  1  0
  8  9  1  0
  8 10  2  0
  9 11  2  0
 10 12  1  0
 10 23  1  0
 11 15  1  0
 11 22  1  0
 12 24  1  0
 13 14  2  0
 13 16  1  0
 13 22  1  0
 14 17  1  0
 14 25  1  0
 15 23  2  0
 16 18  2  0
 17 19  2  0
 18 19  1  0
 19 26  1  0
M  END
$$$$

     RDKit          3D

 25 27  0  0  0  0  0  0  0  0999 V2000
   20.8907   17.8197   29.4850 C   0  0  0  0  0  0  0  0  0  0  0  0
   21.3226   19.0666   30.2341 C   0  0  0  0  0  0  0  0  0  0  0  0
   21.6594   20.2634   29.9371 C   0  0  0  0  0  0  0  0  0  0  0  0
   22.1215   23.9489   36.3322 C   0  0  0  0  0  0  0  0  0  0  0  0
   22.2111   23.0742   35.2408 C   0  0  0  0  0  0  0  0  0  0  0  0
   23.0156   20.8708   30.1986 C   0  0  0  0  0  0  0  0  0  0  0  0
   23.4369   20.9419   31.6262 C   0  0  2  0  0  0  0  0  0  0  0  0
   23.2565   24.5249   36.9119 C   0  0  0  0  0  0  0  0  0  0  0  0
   23.6391   21.7752   33.6530 C   0  0  0  0  0  0  0  0  0  0  0  0
   23.4883   22.7508   34.7522 C   0  0  0  0  0  0  0  0  0  0  0  0
   24.0882   19.4852   35.8801 C   0  0  0  0  0  0  0  0  0  0  0  0
   24.1212   19.9563   32.3902 C   0  0  0  0  0  0  0  0  0  0  0  0
   24.7059   18.8550   36.9761 C   0  0  0  0  0  0  0  0  0  0  0  0
   24.6491   23.3399   35.2792 C   0  0  0  0  0  0  0  0  0  0  0  0
   24.5053   24.2004   36.3946 C   0  0  0  0  0  0  0  0  0  0  0  0
   24.8624   19.9674   34.8148 C   0  0  0  0  0  0  0  0  0  0  0  0
   26.0885   18.8210   37.0034 C   0  0  0  0  0  0  0  0  0  0  0  0
   26.2716   19.9502   34.8871 C   0  0  0  0  0  0  0  0  0  0  0  0
   26.9047   19.3462   35.9941 C   0  0  0  0  0  0  0  0  0  0  0  0
   24.4653   18.7974   31.9681 O   0  0  0  0  0  0  0  0  0  0  0  0
   23.1426   22.0013   32.4185 N   0  0  0  0  0  0  0  0  0  0  0  0
   24.2261   20.5262   33.6944 N   0  0  0  0  0  0  0  0  0  0  0  0
   22.8154   19.6937   35.8636 F   0  0  0  0  0  0  0  0  0  0  0  0
   27.0504   18.1966   38.3961 Cl  0  0  0  0  0  0  0  0  0  0  0  0
   28.6003   19.5012   36.1360 Cl  0  0  0  0  0  0  0  0  0  0  0  0
  1  2  1  0
  2  3  1  0
  3  6  1  0
  4  5  2  0
  4  8  1  0
  5 10  1  0
  7  6  1  1
  7 12  1  0
  7 21  1  0
  8 15  2  0
  9 10  1  0
  9 21  2  0
  9 22  1  0
 10 14  2  0
 11 13  2  0
 11 16  1  0
 11 23  1  0
 12 20  2  0
 12 22  1  0
 13 17  1  0
 14 15  1  0
 16 18  2  0
 16 22  1  0
 17 19  2  0
 17 24  1  0
 18 19  1  0
 19 25  1  0
M  END
$$$$

     RDKit          3D

 22 25  0  0  0  0  0  0  0  0999 V2000
   22.5173   21.6609   35.5276 C   0  0  0  0  0  0  0  0  0  0  0  0
   22.4965   22.7827   36.2924 C   0  0  0  0  0  0  0  0  0  0  0  0
   23.3582   18.4890   36.9527 C   0  0  0  0  0  0  0  0  0  0  0  0
   23.6649   20.0815   34.0164 C   0  0  0  0  0  0  0  0  0  0  0  0
   23.6347   21.3013   34.7806 C   0  0  0  0  0  0  0  0  0  0  0  0
   23.6342   23.5820   36.3250 C   0  0  0  0  0  0  0  0  0  0  0  0
   23.7075   18.1359   38.2505 C   0  0  0  0  0  0  0  0  0  0  0  0
   23.9054   18.8804   30.2333 C   0  0  0  0  0  0  0  0  0  0  0  0
   24.0633   18.6666   32.5547 C   0  0  0  0  0  0  0  0  0  0  0  0
   24.3737   17.9738   31.3233 C   0  0  0  0  0  0  0  0  0  0  0  0
   24.3336   18.6837   35.9720 C   0  0  0  0  0  0  0  0  0  0  0  0
   24.9432   16.8821   31.4390 C   0  0  0  0  0  0  0  0  0  0  0  0
   24.8857   16.7519   33.8648 C   0  0  0  0  0  0  0  0  0  0  0  0
   24.7814   22.1016   34.8700 C   0  0  0  0  0  0  0  0  0  0  0  0
   24.8077   23.2539   35.6492 C   0  0  0  0  0  0  0  0  0  0  0  0
   25.1572   16.1616   32.6134 C   0  0  0  0  0  0  0  0  0  0  0  0
   25.0440   17.9327   38.5196 C   0  0  0  0  0  0  0  0  0  0  0  0
   25.6746   18.5229   36.3225 C   0  0  0  0  0  0  0  0  0  0  0  0
   26.0278   18.1696   37.5989 C   0  0  0  0  0  0  0  0  0  0  0  0
   23.5270   19.9394   32.6911 N   0  0  0  0  0  0  0  0  0  0  0  0
   24.0047   18.9278   34.6425 N   0  0  0  0  0  0  0  0  0  0  0  0
   24.3749   18.0201   33.6940 N   0  0  0  0  0  0  0  0  0  0  0  0
  1  2  2  0
  1  5  1  0
  2  6  1  0
  3  7  2  0
  3 11  1  0
  4  5  1  0
  4 20  2  0
  4 21  1  0
  5 14  2  0
  6 15  2  0
  7 17  1  0
  8 10  1  0
  9 10  1  0
  9 20  1  0
  9 22  1  0
 10 12  2  0
 11 18  2  0
 11 21  1  0
 12 16  1  0
 13 16  1  0
 13 22  1  0
 14 15  1  0
 17 19  2  0
 18 19  1  0
 21 22  1  0
M  END
$$$$

     RDKit          3D

 25 27  0  0  0  0  0  0  0  0999 V2000
   21.1666   17.2983   29.1705 C   0  0  0  0  0  0  0  0  0  0  0  0
   21.0520   19.6348   30.0380 C   0  0  0  0  0  0  0  0  0  0  0  0
   21.5012   20.6879   30.8016 C   0  0  0  0  0  0  0  0  0  0  0  0
   21.7342   18.4123   29.9731 C   0  0  0  0  0  0  0  0  0  0  0  0
   22.7016   20.5363   31.5789 C   0  0  0  0  0  0  0  0  0  0  0  0
   22.9318   18.2585   30.7187 C   0  0  0  0  0  0  0  0  0  0  0  0
   23.3906   19.3207   31.4886 C   0  0  0  0  0  0  0  0  0  0  0  0
   23.4424   21.3824   32.4584 C   0  0  0  0  0  0  0  0  0  0  0  0
   23.2160   22.7897   32.8401 C   0  0  0  0  0  0  0  0  0  0  0  0
   24.5626   20.5959   32.9297 C   0  0  1  0  0  0  0  0  0  0  0  0
   25.2995   18.1943   32.4600 C   0  0  0  0  0  0  0  0  0  0  0  0
   25.4417   21.0102   33.9765 C   0  0  0  0  0  0  0  0  0  0  0  0
   25.7843   20.2534   34.9485 C   0  0  0  0  0  0  0  0  0  0  0  0
   27.1646   19.1181   36.5273 C   0  0  0  0  0  0  0  0  0  0  0  0
   27.3409   18.7691   37.8833 C   0  0  0  0  0  0  0  0  0  0  0  0
   28.2321   19.2224   35.6250 C   0  0  0  0  0  0  0  0  0  0  0  0
   28.6538   18.5446   38.3366 C   0  0  0  0  0  0  0  0  0  0  0  0
   29.7125   18.6042   37.4323 C   0  0  0  0  0  0  0  0  0  0  0  0
   29.5188   18.9744   36.0941 C   0  0  0  0  0  0  0  0  0  0  0  0
   22.5502   23.5765   32.1114 O   0  0  0  0  0  0  0  0  0  0  0  0
   24.7685   17.0342   32.4333 O   0  0  0  0  0  0  0  0  0  0  0  0
   26.5148   18.1660   32.4345 O   0  0  0  0  0  0  0  0  0  0  0  0
   23.8631   23.3637   33.8494 N   0  0  0  0  0  0  0  0  0  0  0  0
   24.4834   19.3235   32.3410 N   0  0  0  0  0  0  0  0  0  0  0  0
   25.5760   19.5373   36.0503 S   0  0  0  0  0  0  0  0  0  0  0  0
  1  4  1  0
  2  3  2  0
  2  4  1  0
  3  5  1  0
  4  6  1  0
  5  7  1  0
  5  8  2  0
  6  7  2  0
  7 24  1  0
  8  9  1  0
  8 10  1  0
  9 20  2  0
  9 23  1  0
 10 12  1  1
 10 24  1  0
 11 21  2  0
 11 22  1  0
 11 24  1  0
 12 13  1  0
 13 25  1  0
 14 15  2  0
 14 16  1  0
 14 25  1  0
 15 17  1  0
 16 19  2  0
 17 18  2  0
 18 19  1  0
M  END
$$$$

     RDKit          3D

 25 28  0  0  0  0  0  0  0  0999 V2000
   21.9229   20.2100   30.0670 C   0  0  0  0  0  0  0  0  0  0  0  0
   22.0541   19.2317   31.0285 C   0  0  0  0  0  0  0  0  0  0  0  0
   22.2350   21.5202   30.3768 C   0  0  0  0  0  0  0  0  0  0  0  0
   22.5049   19.5950   32.2856 C   0  0  0  0  0  0  0  0  0  0  0  0
   22.6888   21.8609   31.6296 C   0  0  0  0  0  0  0  0  0  0  0  0
   22.8619   20.8759   32.6283 C   0  0  0  0  0  0  0  0  0  0  0  0
   23.1077   20.1181   34.9169 C   0  0  0  0  0  0  0  0  0  0  0  0
   24.1190   22.1905   34.4068 C   0  0  0  0  0  0  0  0  0  0  0  0
   24.3059   20.3325   35.8558 C   0  0  2  0  0  0  0  0  0  0  0  0
   24.4979   21.8306   35.7702 C   0  0  0  0  0  0  0  0  0  0  0  0
   25.0214   16.5488   33.4466 C   0  0  0  0  0  0  0  0  0  0  0  0
   24.9702   17.5205   34.4160 C   0  0  0  0  0  0  0  0  0  0  0  0
   25.6529   18.7156   34.2683 C   0  0  0  0  0  0  0  0  0  0  0  0
   25.6370   19.7569   35.3388 C   0  0  0  0  0  0  0  0  0  0  0  0
   25.7483   16.7698   32.2497 C   0  0  0  0  0  0  0  0  0  0  0  0
   26.1151   18.7540   37.6207 C   0  0  0  0  0  0  0  0  0  0  0  0
   26.4372   17.9973   32.0856 C   0  0  0  0  0  0  0  0  0  0  0  0
   26.3331   18.9726   33.0827 C   0  0  0  0  0  0  0  0  0  0  0  0
   26.5706   19.3197   36.4160 C   0  0  0  0  0  0  0  0  0  0  0  0
   27.0042   18.3349   38.6188 C   0  0  0  0  0  0  0  0  0  0  0  0
   27.9571   19.3909   36.1818 C   0  0  0  0  0  0  0  0  0  0  0  0
   28.3803   18.4526   38.3811 C   0  0  0  0  0  0  0  0  0  0  0  0
   28.8609   18.9510   37.1659 C   0  0  0  0  0  0  0  0  0  0  0  0
   25.0521   22.5113   36.5954 O   0  0  0  0  0  0  0  0  0  0  0  0
   23.2855   21.1537   33.9292 N   0  0  0  0  0  0  0  0  0  0  0  0
  1  2  2  0
  1  3  1  0
  2  4  1  0
  3  5  2  0
  4  6  2  0
  5  6  1  0
  6 25  1  0
  7  9  1  0
  7 25  1  0
  8 10  1  0
  8 25  1  0
  9 10  1  0
  9 14  1  6
 10 24  2  0
 11 12  2  0
 11 15  1  0
 12 13  1  0
 13 14  1  0
 13 18  2  0
 14 19  1  0
 15 17  2  0
 16 19  2  0
 16 20  1  0
 17 18  1  0
 19 21  1  0
 20 22  2  0
 21 23  2  0
 22 23  1  0
M  END
$$$$

     RDKit          3D

 32 36  0  0  0  0  0  0  0  0999 V2000
   22.3229   18.7137   28.2679 C   0  0  0  0  0  0  0  0  0  0  0  0
   22.3312   25.8043   36.7055 C   0  0  0  0  0  0  0  0  0  0  0  0
   22.6250   18.8831   31.0130 C   0  0  0  0  0  0  0  0  0  0  0  0
   22.5294   23.2392   36.4321 C   0  0  0  0  0  0  0  0  0  0  0  0
   22.7499   24.5455   35.9489 C   0  0  0  0  0  0  0  0  0  0  0  0
   23.0115   18.9100   29.5561 C   0  0  0  0  0  0  0  0  0  0  0  0
   23.0171   20.7233   32.7997 C   0  0  0  0  0  0  0  0  0  0  0  0
   23.0256   22.0714   35.6678 C   0  0  0  0  0  0  0  0  0  0  0  0
   23.3917   19.5644   32.0419 C   0  0  0  0  0  0  0  0  0  0  0  0
   23.4138   24.7118   34.7073 C   0  0  0  0  0  0  0  0  0  0  0  0
   23.5646   22.3554   34.4333 C   0  0  0  0  0  0  0  0  0  0  0  0
   23.8197   23.6406   33.9647 C   0  0  0  0  0  0  0  0  0  0  0  0
   24.2845   18.7780   37.2146 C   0  0  0  0  0  0  0  0  0  0  0  0
   24.2506   19.7385   36.2263 C   0  0  2  0  0  0  0  0  0  0  0  0
   24.5814   19.0280   32.5943 C   0  0  0  0  0  0  0  0  0  0  0  0
   25.1516   16.6956   32.7599 C   0  0  0  0  0  0  0  0  0  0  0  0
   25.4452   20.1083   35.5555 C   0  0  2  0  0  0  0  0  0  0  0  0
   25.3262   20.7571   34.1224 C   0  0  2  0  0  0  0  0  0  0  0  0
   25.5299   18.3576   37.7485 C   0  0  0  0  0  0  0  0  0  0  0  0
   25.7156   15.5387   32.2311 C   0  0  0  0  0  0  0  0  0  0  0  0
   26.0258   18.0005   31.0372 C   0  0  0  0  0  0  0  0  0  0  0  0
   26.4462   15.6600   31.0550 C   0  0  0  0  0  0  0  0  0  0  0  0
   26.5877   16.9121   30.4697 C   0  0  0  0  0  0  0  0  0  0  0  0
   26.7159   19.7404   36.1134 C   0  0  0  0  0  0  0  0  0  0  0  0
   26.7234   18.8986   37.2544 C   0  0  0  0  0  0  0  0  0  0  0  0
   21.9179   25.7465   37.8485 O   0  0  0  0  0  0  0  0  0  0  0  0
   22.5061   26.9903   36.1574 O   0  0  0  0  0  0  0  0  0  0  0  0
   22.9270   20.6586   36.0578 O   0  0  0  0  0  0  0  0  0  0  0  0
   23.9472   21.2732   33.6646 N   0  0  0  0  0  0  0  0  0  0  0  0
   25.2123   17.9083   32.1254 N   0  0  0  0  0  0  0  0  0  0  0  0
   25.5679   19.7046   33.1735 N   0  0  0  0  0  0  0  0  0  0  0  0
   28.1411   18.4154   38.1423 Cl  0  0  0  0  0  0  0  0  0  0  0  0
  1  6  1  0
  2  5  1  0
  2 26  2  0
  2 27  1  0
  3  6  1  0
  3  9  1  0
  4  5  2  0
  4  8  1  0
  5 10  1  0
  7  9  2  0
  7 29  1  0
  8 11  2  0
  8 28  1  0
  9 15  1  0
 10 12  2  0
 11 12  1  0
 11 29  1  0
 13 14  1  0
 13 19  2  0
 14 17  1  0
 14 28  1  1
 15 30  1  0
 15 31  2  0
 16 20  2  0
 16 30  1  0
 17 18  1  0
 17 24  1  6
 18 29  1  0
 18 31  1  6
 19 25  1  0
 20 22  1  0
 21 23  2  0
 21 30  1  0
 22 23  1  0
 24 25  2  0
 25 32  1  0
M  END
$$$$

     RDKit          3D

 29 33  0  0  0  0  0  0  0  0999 V2000
   22.2200   19.6830   31.7434 C   0  0  0  0  0  0  0  0  0  0  0  0
   22.5514   17.9021   38.2932 C   0  0  0  0  0  0  0  0  0  0  0  0
   22.6488   19.1147   32.9251 C   0  0  0  0  0  0  0  0  0  0  0  0
   22.5225   20.9948   31.4772 C   0  0  0  0  0  0  0  0  0  0  0  0
   22.9466   18.9900   36.1399 C   0  0  0  0  0  0  0  0  0  0  0  0
   23.1230   17.1917   39.3527 C   0  0  0  0  0  0  0  0  0  0  0  0
   23.1635   21.7903   32.4276 C   0  0  0  0  0  0  0  0  0  0  0  0
   23.4271   18.2209   37.2329 C   0  0  0  0  0  0  0  0  0  0  0  0
   23.2979   19.8917   33.8691 C   0  0  0  0  0  0  0  0  0  0  0  0
   23.6172   21.2122   33.6158 C   0  0  0  0  0  0  0  0  0  0  0  0
   23.8164   19.2142   35.0701 C   0  0  0  0  0  0  0  0  0  0  0  0
   24.4049   16.6568   39.2696 C   0  0  0  0  0  0  0  0  0  0  0  0
   24.7788   17.7987   37.2213 C   0  0  0  0  0  0  0  0  0  0  0  0
   25.1039   15.4300   32.6787 C   0  0  0  0  0  0  0  0  0  0  0  0
   25.1290   16.5646   33.4657 C   0  0  0  0  0  0  0  0  0  0  0  0
   25.1248   18.7866   35.0817 C   0  0  0  0  0  0  0  0  0  0  0  0
   25.2678   16.9926   38.2358 C   0  0  0  0  0  0  0  0  0  0  0  0
   25.6890   18.1674   36.1823 C   0  0  0  0  0  0  0  0  0  0  0  0
   25.7368   15.3983   31.4448 C   0  0  0  0  0  0  0  0  0  0  0  0
   25.8594   17.6997   33.0874 C   0  0  0  0  0  0  0  0  0  0  0  0
   26.4665   16.5424   31.0323 C   0  0  0  0  0  0  0  0  0  0  0  0
   26.5553   17.6798   31.8533 C   0  0  0  0  0  0  0  0  0  0  0  0
   26.6492   19.9198   33.5568 C   0  0  0  0  0  0  0  0  0  0  0  0
   27.3327   18.8359   31.4730 C   0  0  0  0  0  0  0  0  0  0  0  0
   21.7297   19.4123   36.1127 O   0  0  0  0  0  0  0  0  0  0  0  0
   26.7970   20.8838   34.3164 O   0  0  0  0  0  0  0  0  0  0  0  0
   27.7441   19.0097   30.2321 O   0  0  0  0  0  0  0  0  0  0  0  0
   25.8714   18.8493   33.8758 N   0  0  0  0  0  0  0  0  0  0  0  0
   27.3157   19.9137   32.3487 N   0  0  0  0  0  0  0  0  0  0  0  0
  1  3  2  0
  1  4  1  0
  2  6  2  0
  2  8  1  0
  3  9  1  0
  4  7  2  0
  5  8  2  0
  5 11  1  0
  5 25  1  0
  6 12  1  0
  7 10  1  0
  8 13  1  0
  9 10  2  0
  9 11  1  0
 11 16  2  0
 12 17  2  0
 13 17  1  0
 13 18  2  0
 14 15  2  0
 14 19  1  0
 15 20  1  0
 16 18  1  0
 16 28  1  0
 19 21  2  0
 20 22  2  0
 20 28  1  0
 21 22  1  0
 22 24  1  0
 23 26  2  0
 23 28  1  0
 23 29  1  0
 24 27  2  0
 24 29  1  0
M  END
$$$$

     RDKit          3D

 21 23  0  0  0  0  0  0  0  0999 V2000
   22.1615   21.1429   29.7716 C   0  0  0  0  0  0  0  0  0  0  0  0
   22.2868   19.9179   29.1445 C   0  0  0  0  0  0  0  0  0  0  0  0
   22.4876   21.2496   31.1400 C   0  0  0  0  0  0  0  0  0  0  0  0
   22.7348   18.7903   29.8439 C   0  0  0  0  0  0  0  0  0  0  0  0
   22.8947   20.1294   31.8418 C   0  0  0  0  0  0  0  0  0  0  0  0
   23.1782   18.6683   37.6822 C   0  0  0  0  0  0  0  0  0  0  0  0
   23.0456   18.9417   31.1966 C   0  0  0  0  0  0  0  0  0  0  0  0
   22.9778   20.2697   26.3441 C   0  0  0  0  0  0  0  0  0  0  0  0
   23.1091   20.3018   33.2765 C   0  0  0  0  0  0  0  0  0  0  0  0
   23.3011   17.6872   38.6736 C   0  0  0  0  0  0  0  0  0  0  0  0
   23.4063   21.8827   34.9340 C   0  0  0  0  0  0  0  0  0  0  0  0
   23.5798   19.6006   35.3984 C   0  0  0  0  0  0  0  0  0  0  0  0
   23.8762   18.6476   36.5108 C   0  0  0  0  0  0  0  0  0  0  0  0
   23.7547   20.9039   35.7187 C   0  0  0  0  0  0  0  0  0  0  0  0
   24.1864   16.6374   38.4742 C   0  0  0  0  0  0  0  0  0  0  0  0
   24.8737   17.6668   36.3951 C   0  0  0  0  0  0  0  0  0  0  0  0
   25.0224   16.6746   37.3724 C   0  0  0  0  0  0  0  0  0  0  0  0
   21.9762   19.8699   27.7872 O   0  0  0  0  0  0  0  0  0  0  0  0
   23.8254   17.9627   31.7970 O   0  0  0  0  0  0  0  0  0  0  0  0
   23.1788   21.4985   33.7727 N   0  0  0  0  0  0  0  0  0  0  0  0
   23.2593   19.2948   34.1516 N   0  0  0  0  0  0  0  0  0  0  0  0
  1  2  2  0
  1  3  1  0
  2  4  1  0
  2 18  1  0
  3  5  2  0
  4  7  2  0
  5  7  1  0
  5  9  1  0
  6 10  1  0
  6 13  2  0
  7 19  1  0
  8 18  1  0
  9 20  2  0
  9 21  1  0
 10 15  1  0
 11 14  1  0
 11 20  1  0
 12 13  1  0
 12 14  2  0
 12 21  1  0
 13 16  1  0
 15 17  2  0
 16 17  1  0
M  END
$$$$

     RDKit          3D

 32 36  0  0  0  0  0  0  0  0999 V2000
   21.2055   17.9136   29.5462 C   0  0  0  0  0  0  0  0  0  0  0  0
   21.6791   18.2773   28.2731 C   0  0  0  0  0  0  0  0  0  0  0  0
   21.6104   18.6115   30.6685 C   0  0  0  0  0  0  0  0  0  0  0  0
   22.1814   22.5125   35.7023 C   0  0  0  0  0  0  0  0  0  0  0  0
   22.3485   19.4802   28.1432 C   0  0  0  0  0  0  0  0  0  0  0  0
   22.4502   19.7314   30.5546 C   0  0  0  0  0  0  0  0  0  0  0  0
   22.6859   21.4169   32.5235 C   0  0  0  0  0  0  0  0  0  0  0  0
   22.7509   20.1828   29.2814 C   0  0  0  0  0  0  0  0  0  0  0  0
   23.2564   22.4285   34.7489 C   0  0  0  0  0  0  0  0  0  0  0  0
   23.3434   24.3236   36.9527 C   0  0  0  0  0  0  0  0  0  0  0  0
   23.9599   19.6527   32.5119 C   0  0  0  0  0  0  0  0  0  0  0  0
   24.0566   20.2987   33.7010 C   0  0  0  0  0  0  0  0  0  0  0  0
   24.3057   19.1649   35.8495 C   0  0  0  0  0  0  0  0  0  0  0  0
   24.6212   17.3165   32.6466 C   0  0  0  0  0  0  0  0  0  0  0  0
   24.5232   23.0312   35.1365 C   0  0  0  0  0  0  0  0  0  0  0  0
   24.5879   23.8675   36.3164 C   0  0  0  0  0  0  0  0  0  0  0  0
   24.8097   18.5575   32.1279 C   0  0  0  0  0  0  0  0  0  0  0  0
   24.9136   19.8187   34.7708 C   0  0  0  0  0  0  0  0  0  0  0  0
   25.1078   18.7455   36.9068 C   0  0  0  0  0  0  0  0  0  0  0  0
   25.3321   16.2242   32.1895 C   0  0  0  0  0  0  0  0  0  0  0  0
   25.9076   18.7505   31.3278 C   0  0  0  0  0  0  0  0  0  0  0  0
   26.2925   16.3859   31.2177 C   0  0  0  0  0  0  0  0  0  0  0  0
   26.2434   20.0029   34.7187 C   0  0  0  0  0  0  0  0  0  0  0  0
   26.6404   17.6466   30.8199 C   0  0  0  0  0  0  0  0  0  0  0  0
   26.4917   18.9629   36.8480 C   0  0  0  0  0  0  0  0  0  0  0  0
   27.0768   19.6062   35.7306 C   0  0  0  0  0  0  0  0  0  0  0  0
   22.0063   22.4137   32.1964 O   0  0  0  0  0  0  0  0  0  0  0  0
   23.0106   18.9278   35.8114 O   0  0  0  0  0  0  0  0  0  0  0  0
   22.2029   23.4993   36.7393 N   0  0  0  0  0  0  0  0  0  0  0  0
   23.0169   20.2842   31.7740 N   0  0  0  0  0  0  0  0  0  0  0  0
   23.3343   21.4076   33.7295 N   0  0  0  0  0  0  0  0  0  0  0  0
   27.4211   18.8854   38.4974 Cl  0  0  0  0  0  0  0  0  0  0  0  0
  1  2  2  0
  1  3  1  0
  2  5  1  0
  3  6  2  0
  4  9  1  0
  4 29  2  0
  5  8  2  0
  6  8  1  0
  6 30  1  0
  7 27  2  0
  7 30  1  0
  7 31  1  0
  9 15  2  0
  9 31  1  0
 10 16  1  0
 10 29  1  0
 11 12  2  0
 11 17  1  0
 11 30  1  0
 12 18  1  0
 12 31  1  0
 13 18  2  0
 13 19  1  0
 13 28  1  0
 14 17  2  0
 14 20  1  0
 15 16  1  0
 17 21  1  0
 18 23  1  0
 19 25  2  0
 20 22  1  0
 21 24  1  0
 22 24  2  0
 23 26  2  0
 25 26  1  0
 25 32  1  0
M  END
$$$$

     RDKit          3D

 22 24  0  0  0  0  0  0  0  0999 V2000
   22.3556   21.6550   31.2323 C   0  0  0  0  0  0  0  0  0  0  0  0
   22.3179   22.4007   36.3309 C   0  0  0  0  0  0  0  0  0  0  0  0
   22.6984   21.2748   35.5594 C   0  0  0  0  0  0  0  0  0  0  0  0
   23.1657   23.4860   36.4255 C   0  0  0  0  0  0  0  0  0  0  0  0
   23.8096   17.9466   30.9614 C   0  0  0  0  0  0  0  0  0  0  0  0
   23.7144   21.0174   31.4372 C   0  0  0  0  0  0  0  0  0  0  0  0
   23.8348   21.3001   34.7253 C   0  0  0  0  0  0  0  0  0  0  0  0
   24.0835   18.6669   32.2345 C   0  0  0  0  0  0  0  0  0  0  0  0
   24.1496   20.1695   33.8372 C   0  0  0  0  0  0  0  0  0  0  0  0
   24.3596   23.5109   35.6509 C   0  0  0  0  0  0  0  0  0  0  0  0
   24.7127   17.7340   36.4078 C   0  0  0  0  0  0  0  0  0  0  0  0
   24.6861   22.4008   34.8509 C   0  0  0  0  0  0  0  0  0  0  0  0
   24.7145   18.9674   34.3022 C   0  0  0  0  0  0  0  0  0  0  0  0
   25.2197   17.4243   37.6559 C   0  0  0  0  0  0  0  0  0  0  0  0
   25.3331   18.6958   35.6367 C   0  0  0  0  0  0  0  0  0  0  0  0
   26.3973   18.0619   38.1191 C   0  0  0  0  0  0  0  0  0  0  0  0
   26.5015   19.3226   36.0585 C   0  0  0  0  0  0  0  0  0  0  0  0
   27.0318   19.0191   37.2885 C   0  0  0  0  0  0  0  0  0  0  0  0
   21.7889   22.0482   32.2053 O   0  0  0  0  0  0  0  0  0  0  0  0
   21.9646   22.0135   30.0262 O   0  0  0  0  0  0  0  0  0  0  0  0
   23.8769   19.9824   32.5186 N   0  0  0  0  0  0  0  0  0  0  0  0
   24.5482   18.0161   33.3675 N   0  0  0  0  0  0  0  0  0  0  0  0
  1  6  1  0
  1 19  2  0
  1 20  1  0
  2  3  2  0
  2  4  1  0
  3  7  1  0
  4 10  2  0
  5  8  1  0
  6 21  1  0
  7  9  1  0
  7 12  2  0
  8 21  1  0
  8 22  2  0
  9 13  2  0
  9 21  1  0
 10 12  1  0
 11 14  2  0
 11 15  1  0
 13 15  1  0
 13 22  1  0
 14 16  1  0
 15 17  2  0
 16 18  2  0
 17 18  1  0
M  END
$$$$

     RDKit          3D

 25 27  0  0  0  0  0  0  0  0999 V2000
   21.8281   19.1657   37.2466 C   0  0  0  0  0  0  0  0  0  0  0  0
   22.2300   24.8500   37.0984 C   0  0  0  0  0  0  0  0  0  0  0  0
   22.5146   18.4632   38.2262 C   0  0  0  0  0  0  0  0  0  0  0  0
   22.4961   19.6081   36.1104 C   0  0  0  0  0  0  0  0  0  0  0  0
   22.5762   21.2561   31.9783 C   0  0  0  0  0  0  0  0  0  0  0  0
   22.6215   22.5722   32.3641 C   0  0  0  0  0  0  0  0  0  0  0  0
   23.1902   20.3264   32.8120 C   0  0  0  0  0  0  0  0  0  0  0  0
   23.2329   23.0249   33.5083 C   0  0  0  0  0  0  0  0  0  0  0  0
   23.4616   23.6233   35.8708 C   0  0  0  0  0  0  0  0  0  0  0  0
   23.8320   18.1271   38.0385 C   0  0  0  0  0  0  0  0  0  0  0  0
   23.8407   19.2264   35.9161 C   0  0  0  0  0  0  0  0  0  0  0  0
   23.8937   20.7218   33.9066 C   0  0  0  0  0  0  0  0  0  0  0  0
   23.9097   22.0748   34.2354 C   0  0  0  0  0  0  0  0  0  0  0  0
   24.4830   18.4670   36.8772 C   0  0  0  0  0  0  0  0  0  0  0  0
   24.6104   19.6644   34.7111 C   0  0  2  0  0  0  0  0  0  0  0  0
   24.7272   17.1148   33.7624 C   0  0  0  0  0  0  0  0  0  0  0  0
   25.1147   16.2538   32.7061 C   0  0  0  0  0  0  0  0  0  0  0  0
   25.1364   18.4499   33.8302 C   0  0  0  0  0  0  0  0  0  0  0  0
   25.8780   16.7578   31.6691 C   0  0  0  0  0  0  0  0  0  0  0  0
   25.9904   18.8766   32.8556 C   0  0  0  0  0  0  0  0  0  0  0  0
   26.3390   18.0586   31.7598 C   0  0  0  0  0  0  0  0  0  0  0  0
   21.1611   25.2073   37.6509 O   0  0  0  0  0  0  0  0  0  0  0  0
   22.3004   23.5832   36.6489 O   0  0  0  0  0  0  0  0  0  0  0  0
   23.2249   25.5780   37.0439 O   0  0  0  0  0  0  0  0  0  0  0  0
   24.6818   22.6214   35.8508 S   0  0  0  0  0  0  0  0  0  0  0  0
  1  3  2  0
  1  4  1  0
  2 22  2  0
  2 23  1  0
  2 24  1  0
  3 10  1  0
  4 11  2  0
  5  6  2  0
  5  7  1  0
  6  8  1  0
  7 12  2  0
  8 13  2  0
  9 23  1  0
  9 25  1  0
 10 14  2  0
 11 14  1  0
 15 11  1  1
 12 13  1  0
 12 15  1  0
 13 25  1  0
 15 18  1  0
 16 17  1  0
 16 18  1  0
 17 19  2  0
 18 20  2  0
 19 21  1  0
 20 21  1  0
M  END
$$$$

     RDKit          3D

 17 18  0  0  0  0  0  0  0  0999 V2000
   22.2644   22.4490   36.2700 C   0  0  0  0  0  0  0  0  0  0  0  0
   22.5776   20.7126   33.4689 C   0  0  0  0  0  0  0  0  0  0  0  0
   22.8748   22.7615   34.9109 C   0  0  2  0  0  0  0  0  0  0  0  0
   23.0507   19.6242   32.8222 C   0  0  0  0  0  0  0  0  0  0  0  0
   23.4137   21.5082   34.2171 C   0  0  0  0  0  0  0  0  0  0  0  0
   23.9545   23.8260   35.1786 C   0  0  0  0  0  0  0  0  0  0  0  0
   24.3971   19.2742   32.9799 C   0  0  0  0  0  0  0  0  0  0  0  0
   24.8430   16.9174   33.3284 C   0  0  0  0  0  0  0  0  0  0  0  0
   24.9282   18.0520   32.4568 C   0  0  0  0  0  0  0  0  0  0  0  0
   24.7986   21.1928   34.3617 C   0  0  0  0  0  0  0  0  0  0  0  0
   25.3768   15.6988   32.9338 C   0  0  0  0  0  0  0  0  0  0  0  0
   25.2608   20.0855   33.6942 C   0  0  0  0  0  0  0  0  0  0  0  0
   25.5588   17.9481   31.1983 C   0  0  0  0  0  0  0  0  0  0  0  0
   25.9845   15.6104   31.6921 C   0  0  0  0  0  0  0  0  0  0  0  0
   26.0866   16.7059   30.8165 C   0  0  0  0  0  0  0  0  0  0  0  0
   21.9533   23.4568   36.9287 O   0  0  0  0  0  0  0  0  0  0  0  0
   22.0527   21.2671   36.6806 O   0  0  0  0  0  0  0  0  0  0  0  0
  1  3  1  0
  1 16  2  0
  1 17  1  0
  2  4  2  0
  2  5  1  0
  3  5  1  0
  3  6  1  1
  4  7  1  0
  5 10  1  0
  7  9  1  0
  7 12  1  0
  8  9  2  0
  8 11  1  0
  9 13  1  0
 10 12  2  0
 11 14  2  0
 13 15  2  0
 14 15  1  0
M  END
$$$$

     RDKit          3D

 24 26  0  0  0  0  0  0  0  0999 V2000
   22.1854   21.0220   31.6903 C   0  0  0  0  0  0  0  0  0  0  0  0
   22.3616   22.4097   31.8221 C   0  0  0  0  0  0  0  0  0  0  0  0
   22.6150   19.8390   36.4598 C   0  0  0  0  0  0  0  0  0  0  0  0
   22.4913   20.1870   32.7745 C   0  0  0  0  0  0  0  0  0  0  0  0
   22.8278   22.9651   33.0477 C   0  0  0  0  0  0  0  0  0  0  0  0
   23.0720   18.9524   37.4802 C   0  0  0  0  0  0  0  0  0  0  0  0
   22.9561   20.7144   34.0188 C   0  0  0  0  0  0  0  0  0  0  0  0
   23.1532   22.0957   34.1163 C   0  0  0  0  0  0  0  0  0  0  0  0
   23.3201   19.8389   35.1819 C   0  0  0  0  0  0  0  0  0  0  0  0
   24.1345   18.1367   37.2983 C   0  0  0  0  0  0  0  0  0  0  0  0
   24.4140   18.9034   35.0833 C   0  0  0  0  0  0  0  0  0  0  0  0
   24.6755   17.2646   38.3816 C   0  0  0  0  0  0  0  0  0  0  0  0
   25.0231   17.6427   33.0426 C   0  0  0  0  0  0  0  0  0  0  0  0
   25.1884   18.7486   33.8400 C   0  0  0  0  0  0  0  0  0  0  0  0
   25.7930   17.4529   31.9332 C   0  0  0  0  0  0  0  0  0  0  0  0
   26.1568   19.7018   33.4856 C   0  0  0  0  0  0  0  0  0  0  0  0
   26.7274   18.4392   31.5340 C   0  0  0  0  0  0  0  0  0  0  0  0
   26.9325   19.5547   32.3500 C   0  0  0  0  0  0  0  0  0  0  0  0
   21.6058   20.5994   36.7737 O   0  0  0  0  0  0  0  0  0  0  0  0
   22.7071   25.1123   32.1182 O   0  0  0  0  0  0  0  0  0  0  0  0
   23.5384   24.9047   34.1981 O   0  0  0  0  0  0  0  0  0  0  0  0
   23.0314   24.3464   33.1376 N   0  0  0  0  0  0  0  0  0  0  0  0
   24.7574   18.1145   36.1086 N   0  0  0  0  0  0  0  0  0  0  0  0
   26.6108   20.9923   34.5742 Cl  0  0  0  0  0  0  0  0  0  0  0  0
  1  2  2  0
  1  4  1  0
  2  5  1  0
  3  6  2  0
  3  9  1  0
  3 19  1  0
  4  7  2  0
  5  8  2  0
  5 22  1  0
  6 10  1  0
  7  8  1  0
  7  9  1  0
  9 11  1  0
 10 12  1  0
 10 23  1  0
 11 14  1  0
 11 23  2  0
 13 14  2  0
 13 15  1  0
 14 16  1  0
 15 17  2  0
 16 18  2  0
 16 24  1  0
 17 18  1  0
 20 22  1  0
 21 22  1  0
M  END
$$$$

     RDKit          3D

 22 23  0  0  0  0  0  0  0  0999 V2000
   22.5098   21.0849   31.5715 C   0  0  0  0  0  0  0  0  0  0  0  0
   23.3057   21.0507   32.7593 C   0  0  0  0  0  0  0  0  0  0  0  0
   24.0492   17.7120   32.8900 C   0  0  0  0  0  0  0  0  0  0  0  0
   24.1233   20.4946   34.8590 C   0  0  0  0  0  0  0  0  0  0  0  0
   24.4850   18.7971   36.6600 C   0  0  0  0  0  0  0  0  0  0  0  0
   24.6488   18.9811   33.0200 C   0  0  0  0  0  0  0  0  0  0  0  0
   24.7856   16.6852   32.2694 C   0  0  0  0  0  0  0  0  0  0  0  0
   24.9145   16.9525   38.3650 C   0  0  0  0  0  0  0  0  0  0  0  0
   24.9752   19.8200   35.8412 C   0  0  0  0  0  0  0  0  0  0  0  0
   25.3454   18.1348   37.5336 C   0  0  0  0  0  0  0  0  0  0  0  0
   25.9539   19.1833   32.6407 C   0  0  0  0  0  0  0  0  0  0  0  0
   26.0886   16.9293   31.8522 C   0  0  0  0  0  0  0  0  0  0  0  0
   26.3283   20.1327   35.8916 C   0  0  0  0  0  0  0  0  0  0  0  0
   26.6808   18.1634   32.0448 C   0  0  0  0  0  0  0  0  0  0  0  0
   26.6825   18.4944   37.5695 C   0  0  0  0  0  0  0  0  0  0  0  0
   27.1904   19.4981   36.7586 C   0  0  0  0  0  0  0  0  0  0  0  0
   21.9753   22.2502   31.2132 O   0  0  0  0  0  0  0  0  0  0  0  0
   22.4736   20.1647   30.7435 O   0  0  0  0  0  0  0  0  0  0  0  0
   23.5947   21.5724   35.2251 O   0  0  0  0  0  0  0  0  0  0  0  0
   24.0199   20.1485   33.5228 N   0  0  0  0  0  0  0  0  0  0  0  0
   26.8694   15.6116   30.7379 Cl  0  0  0  0  0  0  0  0  0  0  0  0
   27.8635   17.6890   38.5323 Cl  0  0  0  0  0  0  0  0  0  0  0  0
  1  2  1  0
  1 17  2  0
  1 18  1  0
  2 20  1  0
  3  6  2  0
  3  7  1  0
  4  9  1  0
  4 19  2  0
  4 20  1  0
  5  9  2  0
  5 10  1  0
  6 11  1  0
  6 20  1  0
  7 12  2  0
  8 10  1  0
  9 13  1  0
 10 15  2  0
 11 14  2  0
 12 14  1  0
 12 21  1  0
 13 16  2  0
 15 16  1  0
 15 22  1  0
M  END
$$$$

     RDKit          3D

 32 34  0  0  0  0  0  0  0  0999 V2000
   21.2824   18.6842   30.5238 C   0  0  0  0  0  0  0  0  0  0  0  0
   22.1963   18.4088   29.6545 C   0  0  0  0  0  0  0  0  0  0  0  0
   22.4680   18.9981   31.3321 C   0  0  0  0  0  0  0  0  0  0  0  0
   22.5713   20.4608   31.7131 C   0  0  0  0  0  0  0  0  0  0  0  0
   22.6139   23.2386   33.1659 C   0  0  0  0  0  0  0  0  0  0  0  0
   22.9540   22.8008   36.2220 C   0  0  0  0  0  0  0  0  0  0  0  0
   23.1936   21.9484   33.6757 C   0  0  2  0  0  0  0  0  0  0  0  0
   24.1572   21.8657   34.7374 C   0  0  0  0  0  0  0  0  0  0  0  0
   24.4347   20.1234   33.3044 C   0  0  2  0  0  0  0  0  0  0  0  0
   24.8597   20.6834   34.5166 C   0  0  0  0  0  0  0  0  0  0  0  0
   25.1344   15.5549   33.2777 C   0  0  0  0  0  0  0  0  0  0  0  0
   25.3409   17.0191   32.6349 C   0  0  0  0  0  0  0  0  0  0  0  0
   25.6010   19.5338   36.6090 C   0  0  0  0  0  0  0  0  0  0  0  0
   25.5058   19.7158   32.1539 C   0  0  0  0  0  0  0  0  0  0  0  0
   25.7448   18.3595   32.0575 C   0  0  0  0  0  0  0  0  0  0  0  0
   25.9125   20.1085   35.3579 C   0  0  0  0  0  0  0  0  0  0  0  0
   26.1258   20.7434   31.4132 C   0  0  0  0  0  0  0  0  0  0  0  0
   26.6306   18.9735   37.3632 C   0  0  0  0  0  0  0  0  0  0  0  0
   26.7202   18.1457   31.1225 C   0  0  0  0  0  0  0  0  0  0  0  0
   27.0765   20.3985   30.4188 C   0  0  0  0  0  0  0  0  0  0  0  0
   27.3568   19.0256   30.2362 C   0  0  0  0  0  0  0  0  0  0  0  0
   27.2261   20.1933   34.8987 C   0  0  0  0  0  0  0  0  0  0  0  0
   27.9554   19.0501   36.9062 C   0  0  0  0  0  0  0  0  0  0  0  0
   28.2614   19.6550   35.6850 C   0  0  0  0  0  0  0  0  0  0  0  0
   22.0116   21.3063   31.0148 O   0  0  0  0  0  0  0  0  0  0  0  0
   22.1342   22.5262   36.8114 O   0  0  0  0  0  0  0  0  0  0  0  0
   23.3754   23.2488   36.6158 O   0  0  0  0  0  0  0  0  0  0  0  0
   23.4063   24.2534   32.8361 O   0  0  0  0  0  0  0  0  0  0  0  0
   24.2127   22.7558   35.7731 O   0  0  0  0  0  0  0  0  0  0  0  0
   23.3582   20.8260   32.8604 N   0  0  0  0  0  0  0  0  0  0  0  0
   28.5217   18.5280   29.0122 Cl  0  0  0  0  0  0  0  0  0  0  0  0
   29.0545   18.3902   38.0539 Cl  0  0  0  0  0  0  0  0  0  0  0  0
  1  2  1  0
  1  3  1  0
  3  4  1  0
  4 25  2  0
  4 30  1  0
  7  5  1  6
  5 28  1  0
  6 26  1  0
  6 27  1  0
  6 29  1  0
  7  8  1  0
  7 30  1  0
  8 10  2  0
  8 29  1  0
  9 10  1  0
  9 14  1  6
  9 30  1  0
 10 16  1  0
 11 12  1  0
 12 15  1  0
 13 16  2  0
 13 18  1  0
 14 15  2  0
 14 17  1  0
 15 19  1  0
 16 22  1  0
 17 20  2  0
 18 23  2  0
 19 21  2  0
 20 21  1  0
 21 31  1  0
 22 24  2  0
 23 24  1  0
 23 32  1  0
M  END
$$$$

     RDKit          3D

 19 20  0  0  0  0  0  0  0  0999 V2000
   21.9385   20.5363   30.9979 C   0  0  0  0  0  0  0  0  0  0  0  0
   22.5677   19.3749   30.5302 C   0  0  0  0  0  0  0  0  0  0  0  0
   22.5992   21.3466   31.9203 C   0  0  0  0  0  0  0  0  0  0  0  0
   23.7532   18.8886   31.2749 C   0  0  0  0  0  0  0  0  0  0  0  0
   23.7269   20.9421   32.5645 C   0  0  0  0  0  0  0  0  0  0  0  0
   24.0218   18.6831   36.5166 C   0  0  0  0  0  0  0  0  0  0  0  0
   24.2134   18.7911   35.1558 C   0  0  0  0  0  0  0  0  0  0  0  0
   24.3391   19.7023   32.2850 C   0  0  0  0  0  0  0  0  0  0  0  0
   24.5666   16.8905   32.4519 C   0  0  0  0  0  0  0  0  0  0  0  0
   25.1149   18.6037   37.3760 C   0  0  0  0  0  0  0  0  0  0  0  0
   25.4699   18.9175   34.5946 C   0  0  0  0  0  0  0  0  0  0  0  0
   25.5248   19.0315   33.0362 C   0  0  2  0  0  0  0  0  0  0  0  0
   26.3871   18.7325   36.8488 C   0  0  0  0  0  0  0  0  0  0  0  0
   26.5731   18.9171   35.4582 C   0  0  0  0  0  0  0  0  0  0  0  0
   26.8045   19.7779   32.6188 C   0  0  0  0  0  0  0  0  0  0  0  0
   25.6469   17.7120   32.4761 N   0  0  0  0  0  0  0  0  0  0  0  0
   21.4709   18.1468   29.7910 Cl  0  0  0  0  0  0  0  0  0  0  0  0
   22.5787   18.4967   37.3936 Cl  0  0  0  0  0  0  0  0  0  0  0  0
   27.5442   18.5151   37.9803 Cl  0  0  0  0  0  0  0  0  0  0  0  0
  1  2  2  0
  1  3  1  0
  2  4  1  0
  2 17  1  0
  3  5  2  0
  4  8  2  0
  5  8  1  0
  6  7  2  0
  6 10  1  0
  6 18  1  0
  7 11  1  0
  8 12  1  0
  9 16  1  0
 10 13  2  0
 11 12  1  0
 11 14  2  0
 12 15  1  1
 12 16  1  0
 13 14  1  0
 13 19  1  0
M  END
$$$$

     RDKit          3D

 27 30  0  0  0  0  0  0  0  0999 V2000
   20.7701   17.8041   29.6692 C   0  0  0  0  0  0  0  0  0  0  0  0
   22.3699   19.4054   30.6360 C   0  0  0  0  0  0  0  0  0  0  0  0
   22.5850   21.4310   31.9096 C   0  0  0  0  0  0  0  0  0  0  0  0
   23.0036   20.1064   31.7296 C   0  0  0  0  0  0  0  0  0  0  0  0
   23.0878   22.1903   32.9444 C   0  0  0  0  0  0  0  0  0  0  0  0
   24.0055   19.5295   32.5493 C   0  0  0  0  0  0  0  0  0  0  0  0
   24.0259   21.6067   33.8944 C   0  0  0  0  0  0  0  0  0  0  0  0
   24.2333   17.1668   33.1838 C   0  0  0  0  0  0  0  0  0  0  0  0
   24.5846   18.1893   32.3364 C   0  0  0  0  0  0  0  0  0  0  0  0
   24.5156   20.2863   33.6615 C   0  0  0  0  0  0  0  0  0  0  0  0
   24.4897   22.3148   35.0387 C   0  0  0  0  0  0  0  0  0  0  0  0
   24.8282   15.8822   33.0173 C   0  0  0  0  0  0  0  0  0  0  0  0
   25.4480   19.7031   34.5564 C   0  0  0  0  0  0  0  0  0  0  0  0
   25.3755   21.6659   35.9058 C   0  0  0  0  0  0  0  0  0  0  0  0
   25.5792   18.0365   31.4069 C   0  0  0  0  0  0  0  0  0  0  0  0
   25.8449   15.7504   32.0606 C   0  0  0  0  0  0  0  0  0  0  0  0
   25.8862   20.3395   35.6962 C   0  0  0  0  0  0  0  0  0  0  0  0
   26.2437   16.8446   31.2942 C   0  0  0  0  0  0  0  0  0  0  0  0
   26.4155   18.9171   37.6946 C   0  0  0  0  0  0  0  0  0  0  0  0
   26.8307   19.5964   36.5851 C   0  0  0  0  0  0  0  0  0  0  0  0
   27.3018   18.2422   38.5395 C   0  0  0  0  0  0  0  0  0  0  0  0
   28.2035   19.5235   36.2102 C   0  0  0  0  0  0  0  0  0  0  0  0
   28.6990   18.2647   38.2372 C   0  0  0  0  0  0  0  0  0  0  0  0
   29.1191   18.8737   37.0572 C   0  0  0  0  0  0  0  0  0  0  0  0
   30.5722   18.9175   36.6470 C   0  0  0  0  0  0  0  0  0  0  0  0
   21.2746   18.6328   30.8427 O   0  0  0  0  0  0  0  0  0  0  0  0
   22.9307   19.5270   29.4871 O   0  0  0  0  0  0  0  0  0  0  0  0
  1 26  1  0
  2  4  1  0
  2 26  1  0
  2 27  2  0
  3  4  2  0
  3  5  1  0
  4  6  1  0
  5  7  2  0
  6  9  1  0
  6 10  2  0
  7 10  1  0
  7 11  1  0
  8  9  2  0
  8 12  1  0
  9 15  1  0
 10 13  1  0
 11 14  2  0
 12 16  2  0
 13 17  2  0
 14 17  1  0
 15 18  2  0
 16 18  1  0
 17 20  1  0
 19 20  2  0
 19 21  1  0
 20 22  1  0
 21 23  1  0
 22 24  1  0
 23 24  2  0
 24 25  1  0
M  END
$$$$

     RDKit          3D

 26 28  0  0  0  0  0  0  0  0999 V2000
   22.8110   19.8138   35.6961 C   0  0  0  0  0  0  0  0  0  0  0  0
   23.0341   21.2072   35.9792 C   0  0  0  0  0  0  0  0  0  0  0  0
   23.6823   18.3200   31.4160 C   0  0  0  0  0  0  0  0  0  0  0  0
   23.5633   19.6973   33.2640 C   0  0  0  0  0  0  0  0  0  0  0  0
   24.4382   21.6825   35.7564 C   0  0  0  0  0  0  0  0  0  0  0  0
   24.6750   17.4063   32.0839 C   0  0  0  0  0  0  0  0  0  0  0  0
   24.6456   17.4625   33.7108 C   0  0  0  0  0  0  0  0  0  0  0  0
   24.6081   18.6811   36.6338 C   0  0  0  0  0  0  0  0  0  0  0  0
   24.4832   18.9286   34.1195 C   0  0  1  0  0  0  0  0  0  0  0  0
   24.5357   23.1722   35.9645 C   0  0  0  0  0  0  0  0  0  0  0  0
   26.0423   18.8216   36.5291 C   0  0  0  0  0  0  0  0  0  0  0  0
   25.9693   19.4186   34.0786 C   0  0  0  0  0  0  0  0  0  0  0  0
   26.7392   18.5622   37.7105 C   0  0  0  0  0  0  0  0  0  0  0  0
   26.7316   19.1112   35.3329 C   0  0  0  0  0  0  0  0  0  0  0  0
   28.1022   18.6547   37.6788 C   0  0  0  0  0  0  0  0  0  0  0  0
   28.1267   19.1665   35.3500 C   0  0  0  0  0  0  0  0  0  0  0  0
   28.8013   18.9147   36.5413 C   0  0  0  0  0  0  0  0  0  0  0  0
   21.6723   19.1215   35.8869 O   0  0  0  0  0  0  0  0  0  0  0  0
   22.2092   21.8968   36.4502 O   0  0  0  0  0  0  0  0  0  0  0  0
   24.0631   17.9181   37.3401 O   0  0  0  0  0  0  0  0  0  0  0  0
   26.5474   19.7890   33.0332 O   0  0  0  0  0  0  0  0  0  0  0  0
   22.8786   20.7039   33.7451 N   0  0  0  0  0  0  0  0  0  0  0  0
   23.1973   19.3905   32.0637 N   0  0  0  0  0  0  0  0  0  0  0  0
   23.9544   19.0633   35.4611 N   0  0  0  0  0  0  0  0  0  0  0  0
   28.7309   18.4331   38.9201 F   0  0  0  0  0  0  0  0  0  0  0  0
   30.5421   18.9469   36.5904 Cl  0  0  0  0  0  0  0  0  0  0  0  0
  1  2  1  0
  1 18  2  0
  1 24  1  0
  2  5  1  0
  2 19  2  0
  3  6  1  0
  3 23  2  0
  4  9  1  0
  4 22  2  0
  4 23  1  0
  5 10  1  0
  6  7  1  0
  9  7  1  6
  8 11  1  0
  8 20  2  0
  8 24  1  0
  9 12  1  0
  9 24  1  0
 11 13  1  0
 11 14  2  0
 12 14  1  0
 12 21  2  0
 13 15  2  0
 14 16  1  0
 15 17  1  0
 15 25  1  0
 16 17  2  0
 17 26  1  0
M  END
$$$$

     RDKit          3D

 21 24  0  0  0  0  0  0  0  0999 V2000
   23.1513   17.9406   38.2734 C   0  0  0  0  0  0  0  0  0  0  0  0
   22.9592   18.9388   29.4231 C   0  0  0  0  0  0  0  0  0  0  0  0
   23.0356   20.2046   31.5895 C   0  0  0  0  0  0  0  0  0  0  0  0
   23.2115   21.4622   33.8043 C   0  0  0  0  0  0  0  0  0  0  0  0
   23.6549   18.6304   37.1992 C   0  0  0  0  0  0  0  0  0  0  0  0
   23.4877   19.1066   30.8397 C   0  0  0  0  0  0  0  0  0  0  0  0
   23.5119   20.3904   32.8921 C   0  0  0  0  0  0  0  0  0  0  0  0
   23.9922   17.3030   39.1139 C   0  0  0  0  0  0  0  0  0  0  0  0
   24.0305   21.1668   34.9880 C   0  0  0  0  0  0  0  0  0  0  0  0
   24.4215   18.1752   31.4059 C   0  0  0  0  0  0  0  0  0  0  0  0
   24.4156   19.5187   33.4639 C   0  0  0  0  0  0  0  0  0  0  0  0
   24.8974   18.3829   32.7613 C   0  0  0  0  0  0  0  0  0  0  0  0
   25.0774   18.8048   36.9001 C   0  0  0  0  0  0  0  0  0  0  0  0
   25.3004   17.5898   38.9969 C   0  0  0  0  0  0  0  0  0  0  0  0
   25.6185   19.4302   35.7160 C   0  0  0  0  0  0  0  0  0  0  0  0
   25.9080   18.2634   37.8927 C   0  0  0  0  0  0  0  0  0  0  0  0
   27.0149   19.4819   35.5634 C   0  0  0  0  0  0  0  0  0  0  0  0
   27.3468   18.4485   37.7209 C   0  0  0  0  0  0  0  0  0  0  0  0
   27.9160   19.0440   36.5801 C   0  0  0  0  0  0  0  0  0  0  0  0
   24.1909   21.9204   35.9680 O   0  0  0  0  0  0  0  0  0  0  0  0
   24.7551   19.9932   34.7466 N   0  0  0  0  0  0  0  0  0  0  0  0
  1  5  2  0
  1  8  1  0
  2  6  1  0
  3  6  2  0
  3  7  1  0
  4  7  1  0
  4  9  1  0
  5 13  1  0
  6 10  1  0
  7 11  2  0
  8 14  2  0
  9 20  2  0
  9 21  1  0
 10 12  2  0
 11 12  1  0
 11 21  1  0
 13 15  2  0
 13 16  1  0
 14 16  1  0
 15 17  1  0
 15 21  1  0
 16 18  2  0
 17 19  2  0
 18 19  1  0
M  END
$$$$

     RDKit          3D

 22 24  0  0  0  0  0  0  0  0999 V2000
   21.9063   21.2608   30.7430 C   0  0  0  0  0  0  0  0  0  0  0  0
   21.9657   19.8101   30.7404 C   0  0  0  0  0  0  0  0  0  0  0  0
   22.6533   21.9855   31.7407 C   0  0  0  0  0  0  0  0  0  0  0  0
   22.8338   18.5006   38.0960 C   0  0  0  0  0  0  0  0  0  0  0  0
   22.7883   19.1513   31.6825 C   0  0  0  0  0  0  0  0  0  0  0  0
   23.4976   17.7369   39.1036 C   0  0  0  0  0  0  0  0  0  0  0  0
   23.5837   19.0290   36.9679 C   0  0  0  0  0  0  0  0  0  0  0  0
   23.5753   19.8957   32.6836 C   0  0  0  0  0  0  0  0  0  0  0  0
   23.4700   21.3127   32.7258 C   0  0  0  0  0  0  0  0  0  0  0  0
   24.4838   19.2531   33.6362 C   0  0  0  0  0  0  0  0  0  0  0  0
   24.8951   17.3963   38.9441 C   0  0  0  0  0  0  0  0  0  0  0  0
   25.0036   18.7682   36.8818 C   0  0  0  0  0  0  0  0  0  0  0  0
   25.1263   20.0332   34.6675 C   0  0  0  0  0  0  0  0  0  0  0  0
   25.0555   21.4860   34.6586 C   0  0  0  0  0  0  0  0  0  0  0  0
   25.2170   15.6141   32.8905 C   0  0  0  0  0  0  0  0  0  0  0  0
   25.3623   17.0917   32.7156 C   0  0  0  0  0  0  0  0  0  0  0  0
   25.6558   17.9421   37.8572 C   0  0  0  0  0  0  0  0  0  0  0  0
   25.8795   19.3817   35.7766 C   0  0  0  0  0  0  0  0  0  0  0  0
   24.6632   17.8728   33.6933 O   0  0  0  0  0  0  0  0  0  0  0  0
   25.7377   22.1901   35.4819 O   0  0  0  0  0  0  0  0  0  0  0  0
   24.2020   22.0859   33.7351 N   0  0  0  0  0  0  0  0  0  0  0  0
   21.1144   18.9672   29.6031 Cl  0  0  0  0  0  0  0  0  0  0  0  0
  1  2  2  0
  1  3  1  0
  2  5  1  0
  2 22  1  0
  3  9  2  0
  4  6  2  0
  4  7  1  0
  5  8  2  0
  6 11  1  0
  7 12  1  0
  8  9  1  0
  8 10  1  0
  9 21  1  0
 10 13  2  0
 10 19  1  0
 11 17  1  0
 12 17  2  0
 12 18  1  0
 13 14  1  0
 13 18  1  0
 14 20  2  0
 14 21  1  0
 15 16  1  0
 16 19  1  0
M  END
$$$$

     RDKit          3D

 35 39  0  0  0  0  0  0  0  0999 V2000
   21.6903   15.7846   40.3057 C   0  0  0  0  0  0  0  0  0  0  0  0
   21.5334   17.3889   28.2540 C   0  0  0  0  0  0  0  0  0  0  0  0
   21.5836   19.8189   29.2340 C   0  0  0  0  0  0  0  0  0  0  0  0
   21.9013   22.9038   31.3977 C   0  0  0  0  0  0  0  0  0  0  0  0
   22.1815   16.4087   39.1597 C   0  0  0  0  0  0  0  0  0  0  0  0
   22.0662   21.5652   30.9715 C   0  0  0  0  0  0  0  0  0  0  0  0
   22.4982   23.3083   32.6223 C   0  0  0  0  0  0  0  0  0  0  0  0
   22.8645   17.2440   41.6871 C   0  0  0  0  0  0  0  0  0  0  0  0
   22.8929   18.7131   37.1408 C   0  0  0  0  0  0  0  0  0  0  0  0
   22.8445   20.6797   31.7298 C   0  0  0  0  0  0  0  0  0  0  0  0
   23.0707   17.4503   39.3016 C   0  0  0  0  0  0  0  0  0  0  0  0
   23.1944   22.3909   33.4322 C   0  0  0  0  0  0  0  0  0  0  0  0
   23.4296   17.8563   40.5685 C   0  0  0  0  0  0  0  0  0  0  0  0
   23.2647   21.0816   33.0257 C   0  0  0  0  0  0  0  0  0  0  0  0
   23.6390   18.1376   38.1343 C   0  0  0  0  0  0  0  0  0  0  0  0
   23.4907   19.1484   35.9572 C   0  0  0  0  0  0  0  0  0  0  0  0
   23.8557   20.0650   33.9662 C   0  0  1  0  0  0  0  0  0  0  0  0
   24.6843   19.4446   30.8909 C   0  0  0  0  0  0  0  0  0  0  0  0
   24.8879   19.0894   35.7965 C   0  0  0  0  0  0  0  0  0  0  0  0
   25.0173   18.0492   37.9815 C   0  0  0  0  0  0  0  0  0  0  0  0
   25.1830   19.6836   34.4366 C   0  0  2  0  0  0  0  0  0  0  0  0
   25.3395   19.1840   32.0461 C   0  0  1  0  0  0  0  0  0  0  0  0
   25.2659   19.8750   29.7226 C   0  0  0  0  0  0  0  0  0  0  0  0
   25.6685   18.5173   36.8232 C   0  0  0  0  0  0  0  0  0  0  0  0
   26.6293   19.9575   29.6846 C   0  0  0  0  0  0  0  0  0  0  0  0
   26.7657   19.3548   31.9674 C   0  0  0  0  0  0  0  0  0  0  0  0
   21.8392   20.0618   27.9148 O   0  0  0  0  0  0  0  0  0  0  0  0
   23.2190   19.3882   31.0863 O   0  0  0  0  0  0  0  0  0  0  0  0
   26.3555   20.3571   34.4103 O   0  0  0  0  0  0  0  0  0  0  0  0
   21.3691   21.0804   29.8697 N   0  0  0  0  0  0  0  0  0  0  0  0
   21.9733   16.2723   41.5479 N   0  0  0  0  0  0  0  0  0  0  0  0
   22.8867   19.6584   34.8354 N   0  0  0  0  0  0  0  0  0  0  0  0
   24.8177   19.1502   33.2360 N   0  0  0  0  0  0  0  0  0  0  0  0
   21.2327   18.0904   29.6679 S   0  0  0  0  0  0  0  0  0  0  0  0
   21.5102   18.8116   37.1648 F   0  0  0  0  0  0  0  0  0  0  0  0
  1  5  2  0
  1 31  1  0
  2 34  1  0
  3 27  2  0
  3 30  1  0
  3 34  1  0
  4  6  1  0
  4  7  2  0
  5 11  1  0
  6 10  1  0
  6 30  2  3
  7 12  1  0
  8 13  1  0
  8 31  2  0
  9 15  1  0
  9 16  2  0
  9 35  1  0
 10 14  1  0
 10 28  1  0
 11 13  2  0
 11 15  1  0
 12 14  2  0
 14 17  1  0
 15 20  2  0
 16 19  1  0
 16 32  1  0
 17 21  1  0
 17 32  1  1
 18 22  1  0
 18 23  2  3
 18 28  1  0
 19 21  1  0
 19 24  2  0
 20 24  1  0
 21 29  1  6
 21 33  1  0
 22 26  1  1
 22 33  1  0
 23 25  1  0
M  END
$$$$

     RDKit          3D

 37 42  0  0  0  0  0  0  0  0999 V2000
   21.1664   16.0943   42.3109 C   0  0  0  0  0  0  0  0  0  0  0  0
   21.6292   17.9055   29.6828 C   0  0  0  0  0  0  0  0  0  0  0  0
   21.9302   16.1278   40.0143 C   0  0  0  0  0  0  0  0  0  0  0  0
   21.7833   18.1561   28.3319 C   0  0  0  0  0  0  0  0  0  0  0  0
   22.0146   16.6810   41.2738 C   0  0  0  0  0  0  0  0  0  0  0  0
   22.0726   18.8708   30.5951 C   0  0  0  0  0  0  0  0  0  0  0  0
   22.2250   19.3078   27.8185 C   0  0  0  0  0  0  0  0  0  0  0  0
   22.2681   22.0928   31.4960 C   0  0  0  0  0  0  0  0  0  0  0  0
   22.4411   22.7109   32.7547 C   0  0  0  0  0  0  0  0  0  0  0  0
   22.6274   20.0820   30.1255 C   0  0  0  0  0  0  0  0  0  0  0  0
   22.9067   16.4466   39.0481 C   0  0  0  0  0  0  0  0  0  0  0  0
   22.7178   20.2490   28.7821 C   0  0  0  0  0  0  0  0  0  0  0  0
   23.1405   21.0617   31.1170 C   0  0  2  0  0  0  0  0  0  0  0  0
   23.4410   22.2444   33.6320 C   0  0  0  0  0  0  0  0  0  0  0  0
   24.1481   18.5821   37.2791 C   0  0  0  0  0  0  0  0  0  0  0  0
   24.3709   19.8461   35.1813 C   0  0  0  0  0  0  0  0  0  0  0  0
   24.2223   20.7002   31.9185 C   0  0  2  0  0  0  0  0  0  0  0  0
   24.2582   21.1695   33.2584 C   0  0  0  0  0  0  0  0  0  0  0  0
   24.6959   17.9016   38.3680 C   0  0  0  0  0  0  0  0  0  0  0  0
   24.9651   19.2022   36.3001 C   0  0  0  0  0  0  0  0  0  0  0  0
   25.3284   19.9171   31.3743 C   0  0  0  0  0  0  0  0  0  0  0  0
   25.4690   18.5120   31.5809 C   0  0  0  0  0  0  0  0  0  0  0  0
   26.0698   17.8208   38.4593 C   0  0  0  0  0  0  0  0  0  0  0  0
   26.3556   19.1984   36.4719 C   0  0  0  0  0  0  0  0  0  0  0  0
   26.2876   20.5828   30.6520 C   0  0  0  0  0  0  0  0  0  0  0  0
   26.4282   20.9674   34.5131 C   0  0  0  0  0  0  0  0  0  0  0  0
   26.5915   17.8364   31.0158 C   0  0  0  0  0  0  0  0  0  0  0  0
   26.9054   18.4596   37.5216 C   0  0  0  0  0  0  0  0  0  0  0  0
   27.3953   19.9508   30.1410 C   0  0  0  0  0  0  0  0  0  0  0  0
   27.2335   19.9297   35.4173 C   0  0  0  0  0  0  0  0  0  0  0  0
   27.5397   18.5731   30.3435 C   0  0  0  0  0  0  0  0  0  0  0  0
   29.8436   18.7481   29.6946 C   0  0  0  0  0  0  0  0  0  0  0  0
   23.7696   17.9855   40.6570 O   0  0  0  0  0  0  0  0  0  0  0  0
   28.6908   17.9689   29.8192 O   0  0  0  0  0  0  0  0  0  0  0  0
   22.9093   17.6182   41.5850 N   0  0  0  0  0  0  0  0  0  0  0  0
   23.8277   17.4380   39.4056 N   0  0  0  0  0  0  0  0  0  0  0  0
   25.0550   20.5253   34.2060 N   0  0  0  0  0  0  0  0  0  0  0  0
  1  5  1  0
  2  4  2  0
  2  6  1  0
  3  5  1  0
  3 11  2  0
  4  7  1  0
  5 35  2  0
  6 10  1  0
  7 12  1  0
  8  9  2  0
  8 13  1  0
  9 14  1  0
 10 12  2  0
 13 10  1  1
 11 36  1  0
 13 17  1  0
 14 18  2  0
 15 19  1  0
 15 20  1  0
 16 20  2  0
 16 37  1  0
 17 18  1  0
 17 21  1  6
 18 37  1  0
 19 23  2  0
 19 36  1  0
 20 24  1  0
 21 22  2  0
 21 25  1  0
 22 27  1  0
 23 28  1  0
 24 28  2  0
 24 30  1  0
 25 29  2  0
 26 30  1  0
 26 37  1  0
 27 31  2  0
 29 31  1  0
 31 34  1  0
 32 34  1  0
 33 35  1  0
 33 36  1  0
M  END
$$$$

     RDKit          3D

 24 28  0  0  0  0  0  0  0  0999 V2000
   21.9240   22.3679   30.4682 C   0  0  0  0  0  0  0  0  0  0  0  0
   21.7829   23.4062   31.4287 C   0  0  0  0  0  0  0  0  0  0  0  0
   22.3050   23.2293   32.7339 C   0  0  0  0  0  0  0  0  0  0  0  0
   22.5611   21.2040   30.8885 C   0  0  0  0  0  0  0  0  0  0  0  0
   22.9436   22.0534   33.1078 C   0  0  0  0  0  0  0  0  0  0  0  0
   23.0545   21.0002   32.1671 C   0  0  0  0  0  0  0  0  0  0  0  0
   23.5183   21.8580   34.4376 C   0  0  0  0  0  0  0  0  0  0  0  0
   23.7775   18.7313   31.5237 C   0  0  0  0  0  0  0  0  0  0  0  0
   23.7177   19.7892   32.5218 C   0  0  0  0  0  0  0  0  0  0  0  0
   24.1931   19.5719   33.8193 C   0  0  0  0  0  0  0  0  0  0  0  0
   24.1720   20.6255   34.7578 C   0  0  0  0  0  0  0  0  0  0  0  0
   24.2206   17.5069   31.9669 C   0  0  0  0  0  0  0  0  0  0  0  0
   24.6555   17.2699   33.2186 C   0  0  0  0  0  0  0  0  0  0  0  0
   24.7189   18.3205   34.1457 C   0  0  0  0  0  0  0  0  0  0  0  0
   24.9082   20.4527   36.0039 C   0  0  0  0  0  0  0  0  0  0  0  0
   25.2673   18.0418   35.4215 C   0  0  0  0  0  0  0  0  0  0  0  0
   25.5922   19.1652   36.3453 C   0  0  1  0  0  0  0  0  0  0  0  0
   27.0417   19.1668   36.8153 C   0  0  0  0  0  0  0  0  0  0  0  0
   27.3133   18.9979   38.1709 C   0  0  0  0  0  0  0  0  0  0  0  0
   28.1201   19.2497   35.9668 C   0  0  0  0  0  0  0  0  0  0  0  0
   28.6300   18.9383   38.6616 C   0  0  0  0  0  0  0  0  0  0  0  0
   29.4211   19.2104   36.4095 C   0  0  0  0  0  0  0  0  0  0  0  0
   29.7119   19.0364   37.7766 C   0  0  0  0  0  0  0  0  0  0  0  0
   21.1740   24.5207   31.0623 O   0  0  0  0  0  0  0  0  0  0  0  0
  1  2  1  0
  1  4  1  0
  2  3  2  0
  2 24  1  0
  3  5  1  0
  4  6  2  0
  5  6  1  0
  5  7  2  0
  6  9  1  0
  7 11  1  0
  8  9  2  0
  8 12  1  0
  9 10  1  0
 10 11  1  0
 10 14  2  0
 11 15  2  0
 12 13  2  0
 13 14  1  0
 14 16  1  0
 15 17  1  0
 16 17  1  0
 17 18  1  6
 18 19  2  0
 18 20  1  0
 19 21  1  0
 20 22  2  0
 21 23  2  0
 22 23  1  0
M  END
$$$$

     RDKit          3D

 25 27  0  0  0  0  0  0  0  0999 V2000
   21.6214   19.4536   30.9858 C   0  0  0  0  0  0  0  0  0  0  0  0
   22.3948   18.4682   30.3487 C   0  0  0  0  0  0  0  0  0  0  0  0
   22.2613   20.3246   31.9105 C   0  0  0  0  0  0  0  0  0  0  0  0
   22.9406   20.8553   35.0805 C   0  0  0  0  0  0  0  0  0  0  0  0
   23.3097   21.8640   33.9560 C   0  0  1  0  0  0  0  0  0  0  0  0
   23.6793   20.2593   32.1356 C   0  0  0  0  0  0  0  0  0  0  0  0
   23.5809   23.2942   33.9908 C   0  0  0  0  0  0  0  0  0  0  0  0
   23.7951   18.4107   30.5232 C   0  0  0  0  0  0  0  0  0  0  0  0
   24.1277   20.0087   35.5231 C   0  0  0  0  0  0  0  0  0  0  0  0
   24.0976   23.7084   35.3511 C   0  0  0  0  0  0  0  0  0  0  0  0
   24.4414   19.2883   31.4240 C   0  0  0  0  0  0  0  0  0  0  0  0
   24.4082   21.3059   32.9991 C   0  0  2  0  0  0  0  0  0  0  0  0
   25.4025   20.1065   34.8916 C   0  0  0  0  0  0  0  0  0  0  0  0
   25.7091   20.9170   33.7061 C   0  0  1  0  0  0  0  0  0  0  0  0
   25.8034   18.9791   36.8535 C   0  0  0  0  0  0  0  0  0  0  0  0
   26.3852   19.4632   35.6806 C   0  0  0  0  0  0  0  0  0  0  0  0
   26.6262   18.5374   37.9052 C   0  0  0  0  0  0  0  0  0  0  0  0
   27.8124   19.3862   35.4646 C   0  0  0  0  0  0  0  0  0  0  0  0
   28.0463   18.5607   37.7151 C   0  0  0  0  0  0  0  0  0  0  0  0
   28.6608   18.9459   36.5008 C   0  0  0  0  0  0  0  0  0  0  0  0
   23.4371   23.9803   32.9676 O   0  0  0  0  0  0  0  0  0  0  0  0
   26.6405   20.1108   33.0512 O   0  0  0  0  0  0  0  0  0  0  0  0
   24.5029   19.1790   36.7164 N   0  0  0  0  0  0  0  0  0  0  0  0
   28.8606   18.1090   38.6620 F   0  0  0  0  0  0  0  0  0  0  0  0
   30.0854   19.0068   36.3100 F   0  0  0  0  0  0  0  0  0  0  0  0
  1  2  2  0
  1  3  1  0
  2  8  1  0
  3  6  2  0
  4  5  1  0
  4  9  1  0
  5  7  1  1
  5 12  1  0
  6 11  1  0
 12  6  1  1
  7 10  1  0
  7 21  2  0
  8 11  2  0
  9 13  2  0
 12 14  1  0
 13 14  1  0
 13 16  1  0
 14 22  1  6
 15 16  2  0
 15 17  1  0
 15 23  1  0
 16 18  1  0
 17 19  1  0
 18 20  1  0
 19 20  2  0
 19 24  1  0
 20 25  1  0
M  END
$$$$

     RDKit          3D

 15 16  0  0  0  0  0  0  0  0999 V2000
   23.0628   19.6979   34.8339 C   0  0  0  0  0  0  0  0  0  0  0  0
   22.9686   20.5137   33.6933 C   0  0  0  0  0  0  0  0  0  0  0  0
   23.3948   21.8123   33.7534 C   0  0  0  0  0  0  0  0  0  0  0  0
   23.8855   20.0371   35.8795 C   0  0  0  0  0  0  0  0  0  0  0  0
   24.1747   19.0004   36.8504 C   0  0  0  0  0  0  0  0  0  0  0  0
   24.1319   22.2059   34.8866 C   0  0  0  0  0  0  0  0  0  0  0  0
   24.3990   21.3177   35.8973 C   0  0  0  0  0  0  0  0  0  0  0  0
   26.2869   18.1296   32.2539 C   0  0  0  0  0  0  0  0  0  0  0  0
   26.6690   18.6654   34.3658 C   0  0  2  0  0  0  0  0  0  0  0  0
   22.4618   20.0186   32.5364 O   0  0  0  0  0  0  0  0  0  0  0  0
   25.5531   17.2843   32.8928 N   0  0  0  0  0  0  0  0  0  0  0  0
   25.4686   19.0302   37.2374 N   0  0  0  0  0  0  0  0  0  0  0  0
   27.1098   18.7900   33.1957 N   0  0  0  0  0  0  0  0  0  0  0  0
   25.4125   17.5688   34.2344 S   0  0  0  0  0  0  0  0  0  0  0  0
   26.7654   19.3391   35.8597 S   0  0  0  0  0  0  0  0  0  0  0  0
  1  2  2  0
  1  4  1  0
  2  3  1  0
  2 10  1  0
  3  6  2  0
  4  5  1  0
  4  7  2  0
  5 12  1  0
  6  7  1  0
  8 11  1  0
  8 13  1  0
  9 13  1  0
  9 14  1  0
  9 15  1  6
 11 14  1  0
 12 15  1  0
M  END
$$$$

     RDKit          3D

 21 23  0  0  0  0  0  0  0  0999 V2000
   21.9562   21.3127   30.3841 C   0  0  0  0  0  0  0  0  0  0  0  0
   22.5217   21.7292   31.6923 C   0  0  0  0  0  0  0  0  0  0  0  0
   22.5769   22.9997   32.1964 C   0  0  0  0  0  0  0  0  0  0  0  0
   22.7305   21.6291   29.1501 C   0  0  0  0  0  0  0  0  0  0  0  0
   23.0803   20.7323   32.4752 C   0  0  0  0  0  0  0  0  0  0  0  0
   23.2288   23.2582   33.3866 C   0  0  0  0  0  0  0  0  0  0  0  0
   23.7345   20.9063   33.6567 C   0  0  0  0  0  0  0  0  0  0  0  0
   23.8488   22.2407   34.1675 C   0  0  0  0  0  0  0  0  0  0  0  0
   25.2064   21.7221   36.0517 C   0  0  0  0  0  0  0  0  0  0  0  0
   25.4524   18.7374   37.5541 C   0  0  0  0  0  0  0  0  0  0  0  0
   25.2328   20.3668   35.6869 C   0  0  1  0  0  0  0  0  0  0  0  0
   26.0472   19.4714   36.5607 C   0  0  0  0  0  0  0  0  0  0  0  0
   26.2938   17.9903   38.4020 C   0  0  0  0  0  0  0  0  0  0  0  0
   27.4162   19.4555   36.3054 C   0  0  0  0  0  0  0  0  0  0  0  0
   27.6516   17.9616   38.2067 C   0  0  0  0  0  0  0  0  0  0  0  0
   28.2298   18.7018   37.1724 C   0  0  0  0  0  0  0  0  0  0  0  0
   21.0168   20.5166   30.3369 O   0  0  0  0  0  0  0  0  0  0  0  0
   21.9797   24.0795   31.5915 O   0  0  0  0  0  0  0  0  0  0  0  0
   24.1959   19.9246   35.1672 O   0  0  0  0  0  0  0  0  0  0  0  0
   24.5640   22.6096   35.3081 N   0  0  0  0  0  0  0  0  0  0  0  0
   24.4926   19.7216   34.4406 S   0  0  0  0  0  0  0  0  0  0  0  0
  1  2  1  0
  1  4  1  0
  1 17  2  0
  2  3  2  0
  2  5  1  0
  3  6  1  0
  3 18  1  0
  5  7  2  0
  6  8  2  0
  7  8  1  0
  7 21  1  0
  8 20  1  0
  9 11  1  0
  9 20  2  0
 10 12  2  0
 10 13  1  0
 11 12  1  1
 11 19  1  0
 12 14  1  0
 13 15  2  0
 14 16  2  0
 15 16  1  0
 19 21  1  0
M  END
$$$$

     RDKit          3D

 32 36  0  0  0  0  0  0  0  0999 V2000
   22.1360   18.5325   37.2503 C   0  0  0  0  0  0  0  0  0  0  0  0
   22.1851   21.4046   31.0959 C   0  0  0  0  0  0  0  0  0  0  0  0
   22.3805   16.3844   40.2136 C   0  0  0  0  0  0  0  0  0  0  0  0
   22.2147   22.5713   31.8528 C   0  0  0  0  0  0  0  0  0  0  0  0
   22.8734   18.1097   38.4134 C   0  0  0  0  0  0  0  0  0  0  0  0
   22.7530   18.7598   36.0048 C   0  0  0  0  0  0  0  0  0  0  0  0
   22.7683   19.0088   30.8087 C   0  0  0  0  0  0  0  0  0  0  0  0
   22.8864   20.2449   31.5906 C   0  0  2  0  0  0  0  0  0  0  0  0
   22.8975   22.5982   33.0933 C   0  0  1  0  0  0  0  0  0  0  0  0
   23.5892   20.2409   32.8535 C   0  0  0  0  0  0  0  0  0  0  0  0
   23.5757   21.4369   33.5566 C   0  0  0  0  0  0  0  0  0  0  0  0
   23.8874   18.0910   31.0401 C   0  0  0  0  0  0  0  0  0  0  0  0
   24.0718   17.8941   32.5044 C   0  0  1  0  0  0  0  0  0  0  0  0
   24.1719   18.6831   35.8932 C   0  0  0  0  0  0  0  0  0  0  0  0
   24.2862   18.1035   38.3439 C   0  0  0  0  0  0  0  0  0  0  0  0
   24.5534   16.5800   32.8861 C   0  0  0  0  0  0  0  0  0  0  0  0
   24.8496   18.9051   34.5842 C   0  0  0  0  0  0  0  0  0  0  0  0
   24.9708   18.4274   37.1449 C   0  0  0  0  0  0  0  0  0  0  0  0
   25.7010   15.9915   32.0471 C   0  0  0  0  0  0  0  0  0  0  0  0
   26.4455   18.5773   37.0782 C   0  0  0  0  0  0  0  0  0  0  0  0
   26.2629   18.9699   34.5996 C   0  0  0  0  0  0  0  0  0  0  0  0
   27.0511   18.8990   35.8419 C   0  0  0  0  0  0  0  0  0  0  0  0
   27.2949   18.3909   38.2438 C   0  0  0  0  0  0  0  0  0  0  0  0
   28.6871   18.5645   38.1603 C   0  0  0  0  0  0  0  0  0  0  0  0
   28.4690   19.1020   35.7923 C   0  0  0  0  0  0  0  0  0  0  0  0
   29.2707   18.9503   36.9584 C   0  0  0  0  0  0  0  0  0  0  0  0
   30.6937   19.1656   36.7305 C   0  0  0  0  0  0  0  0  0  0  0  0
   22.1711   23.7376   35.0910 O   0  0  0  0  0  0  0  0  0  0  0  0
   26.9494   19.0658   33.5135 O   0  0  0  0  0  0  0  0  0  0  0  0
   22.3408   17.9309   39.6488 N   0  0  0  0  0  0  0  0  0  0  0  0
   24.1779   19.0786   33.3252 N   0  0  0  0  0  0  0  0  0  0  0  0
   23.0645   23.9763   34.0786 S   0  0  0  0  0  0  0  0  0  0  0  0
  1  5  2  0
  1  6  1  0
  2  4  2  0
  2  8  1  0
  3 30  1  0
  4  9  1  0
  5 15  1  0
  5 30  1  0
  6 14  2  0
  8  7  1  1
  7 12  1  0
  8 10  1  0
  9 11  1  0
  9 32  1  6
 10 11  2  0
 10 31  1  0
 12 13  1  0
 13 16  1  6
 13 31  1  0
 14 17  1  0
 14 18  1  0
 15 18  2  0
 16 19  1  0
 17 21  2  0
 17 31  1  0
 18 20  1  0
 20 22  2  0
 20 23  1  0
 21 22  1  0
 21 29  1  0
 22 25  1  0
 23 24  2  0
 24 26  1  0
 25 26  2  0
 26 27  1  0
 28 32  1  0
M  END
$$$$

     RDKit          3D

 21 23  0  0  0  0  0  0  0  0999 V2000
   21.2266   18.3995   30.0212 C   0  0  0  0  0  0  0  0  0  0  0  0
   21.3433   19.8905   30.1221 C   0  0  0  0  0  0  0  0  0  0  0  0
   22.1710   20.4095   31.2545 C   0  0  0  0  0  0  0  0  0  0  0  0
   22.1761   21.7285   31.6331 C   0  0  1  0  0  0  0  0  0  0  0  0
   22.9185   19.4618   31.9817 C   0  0  0  0  0  0  0  0  0  0  0  0
   22.8468   22.1727   32.7993 C   0  0  0  0  0  0  0  0  0  0  0  0
   23.6147   19.9296   33.1047 C   0  0  0  0  0  0  0  0  0  0  0  0
   23.5439   21.2208   33.5532 C   0  0  0  0  0  0  0  0  0  0  0  0
   24.3822   19.2036   33.9312 C   0  0  0  0  0  0  0  0  0  0  0  0
   24.3710   21.3393   34.7042 C   0  0  0  0  0  0  0  0  0  0  0  0
   25.1486   18.8323   36.9225 C   0  0  0  0  0  0  0  0  0  0  0  0
   25.9156   18.3403   37.9835 C   0  0  0  0  0  0  0  0  0  0  0  0
   25.7438   19.5045   35.8441 C   0  0  0  0  0  0  0  0  0  0  0  0
   27.1014   19.6130   35.8121 C   0  0  0  0  0  0  0  0  0  0  0  0
   27.3070   18.5192   37.9423 C   0  0  0  0  0  0  0  0  0  0  0  0
   27.9024   19.1265   36.8349 C   0  0  0  0  0  0  0  0  0  0  0  0
   21.7132   22.7988   30.8273 O   0  0  0  0  0  0  0  0  0  0  0  0
   22.8093   23.3954   33.2509 O   0  0  0  0  0  0  0  0  0  0  0  0
   24.5322   17.9672   33.8034 O   0  0  0  0  0  0  0  0  0  0  0  0
   24.5450   22.3366   35.4254 O   0  0  0  0  0  0  0  0  0  0  0  0
   24.9146   20.0263   34.8407 N   0  0  0  0  0  0  0  0  0  0  0  0
  1  2  1  0
  2  3  2  3
  3  4  1  0
  3  5  1  0
  4  6  1  0
  4 17  1  6
  5  7  2  0
  6  8  2  0
  6 18  1  0
  7  8  1  0
  7  9  1  0
  8 10  1  0
  9 19  2  0
  9 21  1  0
 10 20  2  0
 10 21  1  0
 11 12  2  0
 11 13  1  0
 12 15  1  0
 13 14  2  0
 13 21  1  0
 14 16  1  0
 15 16  2  0
M  END
$$$$

     RDKit          3D

 22 25  0  0  0  0  0  0  0  0999 V2000
   21.8933   19.3144   36.6352 C   0  0  0  0  0  0  0  0  0  0  0  0
   22.3670   19.6685   34.1426 C   0  0  0  0  0  0  0  0  0  0  0  0
   22.6614   19.2639   35.4446 C   0  0  0  0  0  0  0  0  0  0  0  0
   23.2765   19.4042   33.1731 C   0  0  0  0  0  0  0  0  0  0  0  0
   23.8765   18.3435   37.0320 C   0  0  0  0  0  0  0  0  0  0  0  0
   23.8894   18.6959   35.7072 C   0  0  0  0  0  0  0  0  0  0  0  0
   24.5336   18.8544   33.4206 C   0  0  0  0  0  0  0  0  0  0  0  0
   24.8782   17.6408   37.7714 C   0  0  2  0  0  0  0  0  0  0  0  0
   24.8288   18.4333   34.6900 C   0  0  0  0  0  0  0  0  0  0  0  0
   25.0174   16.2156   37.5153 C   0  0  0  0  0  0  0  0  0  0  0  0
   25.7099   17.3683   31.7806 C   0  0  2  0  0  0  0  0  0  0  0  0
   25.5238   18.6476   32.3165 C   0  0  0  0  0  0  0  0  0  0  0  0
   26.3343   19.6785   31.8595 C   0  0  0  0  0  0  0  0  0  0  0  0
   26.5758   17.1685   30.6572 C   0  0  0  0  0  0  0  0  0  0  0  0
   27.1673   19.4737   30.7968 C   0  0  1  0  0  0  0  0  0  0  0  0
   27.2513   18.2803   30.1446 C   0  0  0  0  0  0  0  0  0  0  0  0
   28.0973   17.9182   28.9375 C   0  0  0  0  0  0  0  0  0  0  0  0
   22.4424   18.4661   38.7727 O   0  0  0  0  0  0  0  0  0  0  0  0
   22.7078   18.7382   37.5822 N   0  0  0  0  0  0  0  0  0  0  0  0
   23.9253   17.7505   39.3266 S   0  0  0  0  0  0  0  0  0  0  0  0
   24.7397   15.9346   32.3726 Cl  0  0  0  0  0  0  0  0  0  0  0  0
   27.7558   20.8930   29.8872 Cl  0  0  0  0  0  0  0  0  0  0  0  0
  1  3  1  0
  1 19  1  0
  2  3  1  0
  2  4  2  0
  3  6  1  0
  4  7  1  0
  5  6  2  0
  5  8  1  0
  5 19  1  0
  6  9  1  0
  7  9  2  0
  7 12  1  0
  8 10  1  6
  8 20  1  0
 11 12  1  0
 11 14  1  0
 11 21  1  6
 12 13  2  0
 13 15  1  0
 14 16  2  0
 15 16  1  0
 15 22  1  6
 16 17  1  0
 18 19  1  0
 18 20  1  0
M  END
$$$$
