
     RDKit          3D

 26 29  0  0  0  0  0  0  0  0999 V2000
  -30.2423    0.1151  -34.0517 C   0  0  0  0  0  0  0  0  0  0  0  0
  -29.0725    2.9503  -34.6312 C   0  0  0  0  0  0  0  0  0  0  0  0
  -28.8422    0.5779  -33.6131 C   0  0  0  0  0  0  0  0  0  0  0  0
  -28.2980    1.8926  -33.8751 C   0  0  0  0  0  0  0  0  0  0  0  0
  -28.0683   -0.3704  -32.8998 C   0  0  0  0  0  0  0  0  0  0  0  0
  -27.0006    2.2046  -33.4114 C   0  0  0  0  0  0  0  0  0  0  0  0
  -26.3044    1.1978  -32.7028 C   0  0  0  0  0  0  0  0  0  0  0  0
  -25.9489   -0.8423  -31.7650 C   0  0  0  0  0  0  0  0  0  0  0  0
  -25.0365    1.2008  -32.1915 C   0  0  0  0  0  0  0  0  0  0  0  0
  -24.7944   -0.0385  -31.5770 C   0  0  0  0  0  0  0  0  0  0  0  0
  -24.3464    3.2207  -31.0624 C   0  0  0  0  0  0  0  0  0  0  0  0
  -24.1866    2.3349  -32.1404 C   0  0  0  0  0  0  0  0  0  0  0  0
  -23.4902   -0.5528  -31.0095 C   0  0  0  0  0  0  0  0  0  0  0  0
  -23.5134    4.3334  -30.8582 C   0  0  0  0  0  0  0  0  0  0  0  0
  -23.1072   -1.9037  -31.2682 C   0  0  0  0  0  0  0  0  0  0  0  0
  -23.1207    2.5984  -33.1216 C   0  0  0  0  0  0  0  0  0  0  0  0
  -22.5689    0.2879  -30.3024 C   0  0  0  0  0  0  0  0  0  0  0  0
  -22.4997    4.6005  -31.8371 C   0  0  0  0  0  0  0  0  0  0  0  0
  -22.2879    3.7413  -32.9537 C   0  0  0  0  0  0  0  0  0  0  0  0
  -21.9742    2.1173  -35.2746 C   0  0  0  0  0  0  0  0  0  0  0  0
  -21.8313   -2.3932  -30.8054 C   0  0  0  0  0  0  0  0  0  0  0  0
  -21.5744    3.5720  -35.2635 C   0  0  0  0  0  0  0  0  0  0  0  0
  -21.3079   -0.2361  -29.8605 C   0  0  0  0  0  0  0  0  0  0  0  0
  -26.8449   -0.0243  -32.4730 N   0  0  0  0  0  0  0  0  0  0  0  0
  -22.9219    1.7001  -34.2405 N   0  0  0  0  0  0  0  0  0  0  0  0
  -20.9455   -1.5499  -30.1415 N   0  0  0  0  0  0  0  0  0  0  0  0
  1  3  1  0
  2  4  1  0
  3  4  1  0
  3  5  2  0
  4  6  2  0
  5 24  1  0
  6  7  1  0
  7  9  2  0
  7 24  1  0
  8 10  1  0
  8 24  1  0
  9 10  1  0
  9 12  1  0
 10 13  1  0
 11 12  2  0
 11 14  1  0
 12 16  1  0
 13 15  2  0
 13 17  1  0
 14 18  2  0
 15 21  1  0
 16 19  2  0
 16 25  1  0
 17 23  2  0
 18 19  1  0
 20 22  1  0
 20 25  1  0
 21 26  2  0
 23 26  1  0
M  END
$$$$

     RDKit          3D

 37 40  0  0  0  0  0  0  0  0999 V2000
  -32.6150    1.8722  -34.1624 C   0  0  0  0  0  0  0  0  0  0  0  0
  -31.9118    1.2231  -35.3676 C   0  0  0  0  0  0  0  0  0  0  0  0
  -31.2008   -0.9386  -36.0210 C   0  0  0  0  0  0  0  0  0  0  0  0
  -30.6270   -2.1835  -35.6214 C   0  0  0  0  0  0  0  0  0  0  0  0
  -29.7378    0.2721  -34.5343 C   0  0  0  0  0  0  0  0  0  0  0  0
  -29.4952   -2.1782  -34.6468 C   0  0  0  0  0  0  0  0  0  0  0  0
  -29.2548   -0.9450  -33.8920 C   0  0  0  0  0  0  0  0  0  0  0  0
  -27.9860   -1.5569  -31.8497 C   0  0  0  0  0  0  0  0  0  0  0  0
  -26.7569   -0.3937  -33.1938 C   0  0  0  0  0  0  0  0  0  0  0  0
  -26.2178    0.3945  -34.2122 C   0  0  0  0  0  0  0  0  0  0  0  0
  -25.9577   -0.7870  -32.0773 C   0  0  0  0  0  0  0  0  0  0  0  0
  -24.8551    0.7285  -34.1425 C   0  0  0  0  0  0  0  0  0  0  0  0
  -24.5435   -0.4713  -32.0396 C   0  0  0  0  0  0  0  0  0  0  0  0
  -24.0207    0.3201  -33.0828 C   0  0  0  0  0  0  0  0  0  0  0  0
  -22.4437   -3.3490  -30.7267 C   0  0  0  0  0  0  0  0  0  0  0  0
  -22.2890   -0.8812  -30.9080 C   0  0  0  0  0  0  0  0  0  0  0  0
  -22.4041    6.1875  -33.1452 C   0  0  0  0  0  0  0  0  0  0  0  0
  -22.3819    6.3946  -34.5539 C   0  0  0  0  0  0  0  0  0  0  0  0
  -21.9227    5.0020  -32.5676 C   0  0  0  0  0  0  0  0  0  0  0  0
  -21.9297    5.3345  -35.3462 C   0  0  0  0  0  0  0  0  0  0  0  0
  -21.6402   -2.1345  -30.7761 C   0  0  0  0  0  0  0  0  0  0  0  0
  -21.5045    0.2832  -30.9186 C   0  0  0  0  0  0  0  0  0  0  0  0
  -21.4716    3.9443  -33.3558 C   0  0  0  0  0  0  0  0  0  0  0  0
  -21.4698    4.1243  -34.7907 C   0  0  0  0  0  0  0  0  0  0  0  0
  -20.2167   -2.2121  -30.6939 C   0  0  0  0  0  0  0  0  0  0  0  0
  -20.0917    0.2117  -30.8499 C   0  0  0  0  0  0  0  0  0  0  0  0
  -19.6656    2.3287  -32.3424 C   0  0  0  0  0  0  0  0  0  0  0  0
  -19.4549   -1.0207  -30.7261 C   0  0  0  0  0  0  0  0  0  0  0  0
  -19.3414    1.5353  -30.9634 C   0  0  0  0  0  0  0  0  0  0  0  0
  -31.0991    0.1014  -35.0325 O   0  0  0  0  0  0  0  0  0  0  0  0
  -23.7411   -0.8671  -30.9685 O   0  0  0  0  0  0  0  0  0  0  0  0
  -21.1165    3.2019  -35.7382 O   0  0  0  0  0  0  0  0  0  0  0  0
  -18.8832    2.1674  -33.2591 O   0  0  0  0  0  0  0  0  0  0  0  0
  -28.0145   -0.9864  -33.1275 N   0  0  0  0  0  0  0  0  0  0  0  0
  -26.7964   -1.4898  -31.2274 N   0  0  0  0  0  0  0  0  0  0  0  0
  -20.9792    2.8338  -32.5865 N   0  0  0  0  0  0  0  0  0  0  0  0
  -21.8658    5.6042  -36.6505 F   0  0  0  0  0  0  0  0  0  0  0  0
  1  2  1  0
  2 30  1  0
  3  4  1  0
  3 30  1  0
  4  6  1  0
  5  7  1  0
  6  7  1  0
  7 34  1  0
  8 34  1  0
  8 35  1  0
  9 10  2  0
  9 11  1  0
  9 34  1  0
 10 12  1  0
 11 13  2  0
 11 35  1  0
 12 14  2  0
 13 14  1  0
 13 31  1  0
 15 21  1  0
 16 21  2  0
 16 22  1  0
 16 31  1  0
 17 18  2  0
 17 19  1  0
 18 20  1  0
 19 23  2  0
 20 24  2  0
 20 37  1  0
 21 25  1  0
 22 26  2  0
 23 24  1  0
 23 36  1  0
 24 32  1  0
 25 28  2  0
 26 28  1  0
 26 29  1  0
 27 29  1  0
 27 33  2  0
 27 36  1  0
M  END
$$$$

     RDKit          3D

 33 36  0  0  0  0  0  0  0  0999 V2000
  -31.1430    1.0405  -37.3752 C   0  0  0  0  0  0  0  0  0  0  0  0
  -30.8935   -0.4584  -35.3797 C   0  0  0  0  0  0  0  0  0  0  0  0
  -30.3272   -0.4286  -33.9605 C   0  0  0  0  0  0  0  0  0  0  0  0
  -29.4644    1.6304  -35.7707 C   0  0  0  0  0  0  0  0  0  0  0  0
  -28.4718    0.9464  -34.8392 C   0  0  0  0  0  0  0  0  0  0  0  0
  -28.0059   -1.4076  -32.1994 C   0  0  0  0  0  0  0  0  0  0  0  0
  -27.9397   -0.4730  -33.2395 C   0  0  0  0  0  0  0  0  0  0  0  0
  -26.6787    0.0729  -33.3689 C   0  0  0  0  0  0  0  0  0  0  0  0
  -25.8896   -0.6635  -32.3203 C   0  0  0  0  0  0  0  0  0  0  0  0
  -24.4578   -0.6063  -32.0043 C   0  0  0  0  0  0  0  0  0  0  0  0
  -23.6182    0.4867  -32.3862 C   0  0  0  0  0  0  0  0  0  0  0  0
  -22.7388    7.0540  -33.8447 C   0  0  0  0  0  0  0  0  0  0  0  0
  -22.5501   -1.6999  -31.0773 C   0  0  0  0  0  0  0  0  0  0  0  0
  -22.5389    5.8740  -33.1555 C   0  0  0  0  0  0  0  0  0  0  0  0
  -22.2371    0.4892  -32.0544 C   0  0  0  0  0  0  0  0  0  0  0  0
  -22.3892    7.1692  -35.1893 C   0  0  0  0  0  0  0  0  0  0  0  0
  -22.0300   -2.8077  -30.3750 C   0  0  0  0  0  0  0  0  0  0  0  0
  -21.8043    3.5957  -33.0816 C   0  0  0  0  0  0  0  0  0  0  0  0
  -21.9296    4.7959  -33.8090 C   0  0  0  0  0  0  0  0  0  0  0  0
  -21.7792    6.0594  -35.8421 C   0  0  0  0  0  0  0  0  0  0  0  0
  -21.6887   -0.6459  -31.3845 C   0  0  0  0  0  0  0  0  0  0  0  0
  -21.5748    4.9015  -35.1272 C   0  0  0  0  0  0  0  0  0  0  0  0
  -21.3965    2.2795  -33.4455 C   0  0  0  0  0  0  0  0  0  0  0  0
  -20.6118   -2.9077  -30.1096 C   0  0  0  0  0  0  0  0  0  0  0  0
  -19.7796   -1.9391  -30.8151 C   0  0  0  0  0  0  0  0  0  0  0  0
  -20.6314    2.1095  -34.4012 O   0  0  0  0  0  0  0  0  0  0  0  0
  -20.4217   -0.6945  -31.0400 O   0  0  0  0  0  0  0  0  0  0  0  0
  -30.7296    0.8099  -35.9936 N   0  0  0  0  0  0  0  0  0  0  0  0
  -28.9171   -0.0468  -34.0552 N   0  0  0  0  0  0  0  0  0  0  0  0
  -27.2506    1.2213  -34.7545 N   0  0  0  0  0  0  0  0  0  0  0  0
  -26.7748   -1.3993  -31.6458 N   0  0  0  0  0  0  0  0  0  0  0  0
  -23.9268   -1.6442  -31.3463 N   0  0  0  0  0  0  0  0  0  0  0  0
  -21.3824    1.4843  -32.3850 N   0  0  0  0  0  0  0  0  0  0  0  0
  1 28  1  0
  2  3  1  0
  2 28  1  0
  3 29  1  0
  4  5  1  0
  4 28  1  0
  5 29  1  0
  5 30  2  0
  6  7  1  0
  7  8  1  0
  7 29  1  0
  8  9  1  0
  9 10  1  0
  9 31  1  0
 10 11  2  0
 10 32  1  0
 11 15  1  0
 12 14  2  0
 12 16  1  0
 13 17  1  0
 13 21  1  0
 13 32  2  0
 14 19  1  0
 15 21  2  0
 15 33  1  0
 16 20  2  0
 17 24  2  0
 18 19  1  0
 18 23  1  0
 19 22  2  0
 20 22  1  0
 21 27  1  0
 23 26  2  0
 23 33  1  0
 24 25  1  0
 25 27  1  0
M  END
$$$$

     RDKit          3D

 28 29  0  0  0  0  0  0  0  0999 V2000
  -30.4477   -0.7763  -35.1261 C   0  0  0  0  0  0  0  0  0  0  0  0
  -29.8215   -2.1052  -34.8386 C   0  0  0  0  0  0  0  0  0  0  0  0
  -28.4946   -0.4174  -34.0920 C   0  0  0  0  0  0  0  0  0  0  0  0
  -27.3761    0.2194  -33.4311 C   0  0  0  0  0  0  0  0  0  0  0  0
  -27.2502    3.5663  -31.9509 C   0  0  0  0  0  0  0  0  0  0  0  0
  -26.7561    2.2390  -32.4100 C   0  0  0  0  0  0  0  0  0  0  0  0
  -26.8862    5.9826  -31.6387 C   0  0  0  0  0  0  0  0  0  0  0  0
  -26.5767    6.0611  -30.1952 C   0  0  0  0  0  0  0  0  0  0  0  0
  -26.4951    7.2167  -32.4085 C   0  0  0  0  0  0  0  0  0  0  0  0
  -26.1224   -0.3484  -33.2093 C   0  0  0  0  0  0  0  0  0  0  0  0
  -25.1882    0.4683  -32.5835 C   0  0  0  0  0  0  0  0  0  0  0  0
  -25.0965    7.7138  -32.3224 C   0  0  0  0  0  0  0  0  0  0  0  0
  -24.3553    6.3805  -30.4362 C   0  0  0  0  0  0  0  0  0  0  0  0
  -24.1539    6.7867  -31.7711 C   0  0  0  0  0  0  0  0  0  0  0  0
  -23.7489   -0.0574  -32.2491 C   0  0  0  0  0  0  0  0  0  0  0  0
  -23.3984   -1.3589  -31.2478 C   0  0  0  0  0  0  0  0  0  0  0  0
  -22.2435   -2.4894  -31.1901 C   0  0  0  0  0  0  0  0  0  0  0  0
  -21.0289   -2.2852  -30.2779 C   0  0  0  0  0  0  0  0  0  0  0  0
  -21.0886   -1.5800  -29.0917 C   0  0  0  0  0  0  0  0  0  0  0  0
  -19.7483   -2.8220  -30.6637 C   0  0  0  0  0  0  0  0  0  0  0  0
  -19.8489   -1.5328  -28.3423 C   0  0  0  0  0  0  0  0  0  0  0  0
  -19.6310   -1.1735  -26.8871 C   0  0  0  0  0  0  0  0  0  0  0  0
  -18.7617   -2.7512  -30.3507 C   0  0  0  0  0  0  0  0  0  0  0  0
  -29.4331    0.2121  -34.7385 O   0  0  0  0  0  0  0  0  0  0  0  0
  -28.6840   -1.7460  -34.0777 N   0  0  0  0  0  0  0  0  0  0  0  0
  -27.6654    1.4584  -33.0111 N   0  0  0  0  0  0  0  0  0  0  0  0
  -26.5030    4.7530  -32.2900 N   0  0  0  0  0  0  0  0  0  0  0  0
  -25.4928    1.7374  -32.2080 N   0  0  0  0  0  0  0  0  0  0  0  0
  1  2  1  0
  1 24  1  0
  2 25  1  0
  3  4  1  0
  3 24  1  0
  3 25  1  0
  4 10  2  0
  4 26  1  0
  5  6  1  0
  5 27  2  3
  6 26  2  0
  6 28  1  0
  7  8  1  0
  7  9  1  0
  7 27  1  0
  9 12  2  3
 10 11  1  0
 11 15  1  0
 11 28  2  0
 12 14  1  0
 13 14  1  0
 15 16  1  0
 16 17  1  0
 17 18  1  0
 18 19  2  3
 18 20  1  0
 19 21  1  0
 20 23  2  0
 21 22  1  0
M  END
$$$$

     RDKit          3D

 34 35  0  0  0  0  0  0  0  0999 V2000
  -27.7383    0.6783  -34.1040 C   0  0  0  0  0  0  0  0  0  0  0  0
  -27.4574    2.8683  -32.9459 C   0  0  0  0  0  0  0  0  0  0  0  0
  -26.9619    4.2187  -32.3643 C   0  0  0  0  0  0  0  0  0  0  0  0
  -26.9541    4.2749  -30.8671 C   0  0  0  0  0  0  0  0  0  0  0  0
  -26.8220    2.0138  -34.1791 C   0  0  0  0  0  0  0  0  0  0  0  0
  -25.9005    5.2439  -34.3130 C   0  0  0  0  0  0  0  0  0  0  0  0
  -25.7081    4.8246  -32.9792 C   0  0  0  0  0  0  0  0  0  0  0  0
  -25.3232   -0.5390  -32.8046 C   0  0  0  0  0  0  0  0  0  0  0  0
  -25.3259    1.6829  -34.0762 C   0  0  0  0  0  0  0  0  0  0  0  0
  -25.1757    0.7093  -30.4122 C   0  0  0  0  0  0  0  0  0  0  0  0
  -24.9213   -0.4947  -31.3278 C   0  0  0  0  0  0  0  0  0  0  0  0
  -24.7208    0.3185  -33.8098 C   0  0  0  0  0  0  0  0  0  0  0  0
  -24.7975    5.4781  -35.1386 C   0  0  0  0  0  0  0  0  0  0  0  0
  -24.4128    4.9817  -32.3706 C   0  0  0  0  0  0  0  0  0  0  0  0
  -24.2084    4.9706  -30.8655 C   0  0  0  0  0  0  0  0  0  0  0  0
  -23.5021    5.3975  -34.5673 C   0  0  0  0  0  0  0  0  0  0  0  0
  -23.4530   -0.9232  -31.2315 C   0  0  0  0  0  0  0  0  0  0  0  0
  -23.3253    3.7841  -30.4768 C   0  0  0  0  0  0  0  0  0  0  0  0
  -23.3121    5.2403  -33.1736 C   0  0  0  0  0  0  0  0  0  0  0  0
  -22.3434    0.1872  -31.2330 C   0  0  0  0  0  0  0  0  0  0  0  0
  -22.3611    5.4630  -35.4886 C   0  0  0  0  0  0  0  0  0  0  0  0
  -22.1688    1.0146  -32.3713 C   0  0  0  0  0  0  0  0  0  0  0  0
  -21.6301    3.0676  -34.6404 C   0  0  0  0  0  0  0  0  0  0  0  0
  -21.4413    4.2644  -35.4829 C   0  0  0  0  0  0  0  0  0  0  0  0
  -21.1780   -0.0969  -30.4175 C   0  0  0  0  0  0  0  0  0  0  0  0
  -20.9318    1.7943  -32.5331 C   0  0  0  0  0  0  0  0  0  0  0  0
  -20.6668    2.8049  -33.5877 C   0  0  0  0  0  0  0  0  0  0  0  0
  -20.3844    4.1980  -36.4050 C   0  0  0  0  0  0  0  0  0  0  0  0
  -20.2512    5.4748  -37.3166 C   0  0  0  0  0  0  0  0  0  0  0  0
  -28.8004    2.7573  -32.8269 O   0  0  0  0  0  0  0  0  0  0  0  0
  -27.0900    2.4503  -35.5801 O   0  0  0  0  0  0  0  0  0  0  0  0
  -27.1719    5.5197  -34.8034 O   0  0  0  0  0  0  0  0  0  0  0  0
  -25.7837   -1.5089  -30.9183 O   0  0  0  0  0  0  0  0  0  0  0  0
  -19.4588    3.2142  -33.6277 O   0  0  0  0  0  0  0  0  0  0  0  0
  1  5  1  0
  2  3  1  0
  2  5  1  0
  2 30  1  0
  3  4  1  0
  3  7  1  0
  5  9  1  0
  5 31  1  0
  6  7  1  0
  6 13  2  0
  6 32  1  0
  7 14  1  0
  8 11  1  0
  8 12  1  0
  9 12  1  0
 10 11  1  0
 11 17  1  0
 11 33  1  0
 13 16  1  0
 14 15  1  0
 14 19  2  0
 15 18  1  0
 16 19  1  0
 16 21  1  0
 17 20  1  0
 20 22  2  3
 20 25  1  0
 21 24  2  3
 22 26  1  0
 23 24  1  0
 23 27  1  0
 24 28  1  0
 26 27  1  0
 27 34  2  0
 28 29  1  0
M  END
$$$$

     RDKit          3D

 42 45  0  0  0  0  0  0  0  0999 V2000
  -31.7953    1.5237  -35.9976 C   0  0  0  0  0  0  0  0  0  0  0  0
  -31.6596    0.6664  -34.8870 C   0  0  0  0  0  0  0  0  0  0  0  0
  -30.6375    2.2118  -36.4860 C   0  0  0  0  0  0  0  0  0  0  0  0
  -30.4411    0.5709  -34.1433 C   0  0  0  0  0  0  0  0  0  0  0  0
  -29.4460    2.0719  -35.6745 C   0  0  0  0  0  0  0  0  0  0  0  0
  -28.2569    2.8472  -36.0992 C   0  0  0  0  0  0  0  0  0  0  0  0
  -28.1138    1.1303  -33.8330 C   0  0  0  0  0  0  0  0  0  0  0  0
  -27.5892    1.8827  -32.7681 C   0  0  0  0  0  0  0  0  0  0  0  0
  -27.2453    0.1664  -34.3139 C   0  0  0  0  0  0  0  0  0  0  0  0
  -27.2162    4.8615  -35.3393 C   0  0  0  0  0  0  0  0  0  0  0  0
  -26.6843    5.7075  -34.6753 C   0  0  0  0  0  0  0  0  0  0  0  0
  -26.3492    1.5343  -32.0887 C   0  0  0  0  0  0  0  0  0  0  0  0
  -26.0113   -0.1168  -33.7392 C   0  0  0  0  0  0  0  0  0  0  0  0
  -25.8031    2.4183  -31.0737 C   0  0  0  0  0  0  0  0  0  0  0  0
  -25.8649    4.6892  -35.9995 C   0  0  0  0  0  0  0  0  0  0  0  0
  -25.8099    6.3113  -32.2766 C   0  0  0  0  0  0  0  0  0  0  0  0
  -25.5133    0.5488  -32.6536 C   0  0  0  0  0  0  0  0  0  0  0  0
  -25.4563    3.5381  -35.6145 C   0  0  0  0  0  0  0  0  0  0  0  0
  -25.6875    5.9180  -33.7481 C   0  0  0  0  0  0  0  0  0  0  0  0
  -25.2107    4.7526  -38.1399 C   0  0  0  0  0  0  0  0  0  0  0  0
  -24.8162    2.8090  -36.6974 C   0  0  0  0  0  0  0  0  0  0  0  0
  -24.8065    7.0943  -34.2173 C   0  0  0  0  0  0  0  0  0  0  0  0
  -24.6340    3.5638  -37.8684 C   0  0  0  0  0  0  0  0  0  0  0  0
  -24.0302   -0.9602  -31.3016 C   0  0  0  0  0  0  0  0  0  0  0  0
  -22.9102    5.6131  -33.5907 C   0  0  0  0  0  0  0  0  0  0  0  0
  -22.7408    6.8410  -35.4046 C   0  0  0  0  0  0  0  0  0  0  0  0
  -22.6493   -1.4868  -31.0994 C   0  0  0  0  0  0  0  0  0  0  0  0
  -22.3741   -2.8948  -30.9043 C   0  0  0  0  0  0  0  0  0  0  0  0
  -21.5867   -0.6007  -31.1024 C   0  0  0  0  0  0  0  0  0  0  0  0
  -21.0048   -3.2810  -30.8460 C   0  0  0  0  0  0  0  0  0  0  0  0
  -20.6382   -4.6845  -30.7752 C   0  0  0  0  0  0  0  0  0  0  0  0
  -20.2800   -1.0647  -31.0218 C   0  0  0  0  0  0  0  0  0  0  0  0
  -19.5008   -5.4486  -31.0663 C   0  0  0  0  0  0  0  0  0  0  0  0
  -30.4128   -0.2223  -33.1311 O   0  0  0  0  0  0  0  0  0  0  0  0
  -28.0239    3.9065  -35.2243 O   0  0  0  0  0  0  0  0  0  0  0  0
  -25.0313   -1.5138  -30.9470 O   0  0  0  0  0  0  0  0  0  0  0  0
  -29.3514    1.3138  -34.5083 N   0  0  0  0  0  0  0  0  0  0  0  0
  -25.9025    5.2602  -37.1402 N   0  0  0  0  0  0  0  0  0  0  0  0
  -24.2030    0.2434  -32.1057 N   0  0  0  0  0  0  0  0  0  0  0  0
  -23.4878    6.6278  -34.3278 N   0  0  0  0  0  0  0  0  0  0  0  0
  -21.7619    5.4888  -33.7429 N   0  0  0  0  0  0  0  0  0  0  0  0
  -19.9911   -2.3717  -30.9185 N   0  0  0  0  0  0  0  0  0  0  0  0
  1  2  2  0
  1  3  1  0
  2  4  1  0
  3  5  2  0
  4 34  2  0
  4 37  1  0
  5  6  1  0
  5 37  1  0
  6 35  1  0
  7  8  2  0
  7  9  1  0
  7 37  1  0
  8 12  1  0
  9 13  2  0
 10 11  1  0
 10 15  1  0
 10 35  1  0
 11 19  1  0
 12 14  1  0
 12 17  2  0
 13 17  1  0
 15 18  1  0
 15 38  1  0
 16 19  1  0
 17 39  1  0
 18 21  1  0
 19 22  1  0
 20 23  1  0
 20 38  1  0
 21 23  1  0
 22 40  1  0
 24 27  1  0
 24 36  2  0
 24 39  1  0
 25 40  1  0
 25 41  1  0
 26 40  1  0
 27 28  2  0
 27 29  1  0
 28 30  1  0
 29 32  2  0
 30 31  1  0
 30 42  2  0
 31 33  1  0
 32 42  1  0
M  END
$$$$

     RDKit          3D

 56 60  0  0  0  0  0  0  0  0999 V2000
  -29.4999    4.6615  -33.7293 C   0  0  0  0  0  0  0  0  0  0  0  0
  -28.9916    6.0905  -33.8665 C   0  0  0  0  0  0  0  0  0  0  0  0
  -28.9340    2.7048  -34.7108 C   0  0  0  0  0  0  0  0  0  0  0  0
  -27.5961    1.0968  -32.7886 C   0  0  0  0  0  0  0  0  0  0  0  0
  -27.6971    3.3099  -37.0915 C   0  0  0  0  0  0  0  0  0  0  0  0
  -27.4865    6.0727  -34.1803 C   0  0  0  0  0  0  0  0  0  0  0  0
  -27.1864    4.6414  -34.5198 C   0  0  0  0  0  0  0  0  0  0  0  0
  -26.8266    6.5411  -32.8894 C   0  0  0  0  0  0  0  0  0  0  0  0
  -26.9094    8.3784  -34.7659 C   0  0  0  0  0  0  0  0  0  0  0  0
  -26.4507    0.0125  -32.9305 C   0  0  0  0  0  0  0  0  0  0  0  0
  -26.1729    4.5384  -35.6699 C   0  0  0  0  0  0  0  0  0  0  0  0
  -25.8993   -0.5033  -31.6231 C   0  0  0  0  0  0  0  0  0  0  0  0
  -25.5040   -0.2027  -34.0549 C   0  0  0  0  0  0  0  0  0  0  0  0
  -25.1353    5.7025  -35.7248 C   0  0  0  0  0  0  0  0  0  0  0  0
  -24.9162    0.9335  -34.7189 C   0  0  0  0  0  0  0  0  0  0  0  0
  -24.6766    0.1201  -31.0015 C   0  0  0  0  0  0  0  0  0  0  0  0
  -24.6010    1.5494  -30.9349 C   0  0  0  0  0  0  0  0  0  0  0  0
  -23.7388    1.6805  -34.7749 C   0  0  0  0  0  0  0  0  0  0  0  0
  -23.9409    2.9815  -35.4880 C   0  0  0  0  0  0  0  0  0  0  0  0
  -23.7762    5.4745  -34.9655 C   0  0  0  0  0  0  0  0  0  0  0  0
  -23.4621   -0.6283  -30.8293 C   0  0  0  0  0  0  0  0  0  0  0  0
  -23.6671    5.7939  -30.7356 C   0  0  0  0  0  0  0  0  0  0  0  0
  -23.3183    1.9469  -36.1597 C   0  0  0  0  0  0  0  0  0  0  0  0
  -23.0620    4.2805  -35.5920 C   0  0  0  0  0  0  0  0  0  0  0  0
  -22.6838    4.8738  -32.8726 C   0  0  0  0  0  0  0  0  0  0  0  0
  -22.5638    4.9973  -31.4748 C   0  0  0  0  0  0  0  0  0  0  0  0
  -22.2413    0.0321  -30.2651 C   0  0  0  0  0  0  0  0  0  0  0  0
  -22.1925   -2.8347  -30.8728 C   0  0  0  0  0  0  0  0  0  0  0  0
  -21.6723    4.0918  -33.5975 C   0  0  0  0  0  0  0  0  0  0  0  0
  -21.5175    4.3716  -30.7699 C   0  0  0  0  0  0  0  0  0  0  0  0
  -21.1507   -0.8738  -29.6880 C   0  0  0  0  0  0  0  0  0  0  0  0
  -20.9076   -2.0127  -30.7272 C   0  0  0  0  0  0  0  0  0  0  0  0
  -20.5630    3.4859  -32.8659 C   0  0  0  0  0  0  0  0  0  0  0  0
  -20.5516    3.5326  -31.4206 C   0  0  0  0  0  0  0  0  0  0  0  0
  -20.2050    1.2168  -30.5847 C   0  0  0  0  0  0  0  0  0  0  0  0
  -19.9216    0.1309  -29.5386 C   0  0  0  0  0  0  0  0  0  0  0  0
  -19.6571    2.6070  -30.5399 C   0  0  0  0  0  0  0  0  0  0  0  0
  -19.4967    2.7275  -33.6446 C   0  0  0  0  0  0  0  0  0  0  0  0
  -28.3320    3.9412  -34.7991 O   0  0  0  0  0  0  0  0  0  0  0  0
  -27.5822   -0.0082  -33.3679 O   0  0  0  0  0  0  0  0  0  0  0  0
  -26.9745    7.0637  -35.0732 O   0  0  0  0  0  0  0  0  0  0  0  0
  -26.8952    4.5675  -36.8836 O   0  0  0  0  0  0  0  0  0  0  0  0
  -26.6954   -1.2664  -31.0003 O   0  0  0  0  0  0  0  0  0  0  0  0
  -24.8747    5.9685  -37.0631 O   0  0  0  0  0  0  0  0  0  0  0  0
  -24.3622    6.7564  -31.2870 O   0  0  0  0  0  0  0  0  0  0  0  0
  -24.1012    5.3865  -29.6270 O   0  0  0  0  0  0  0  0  0  0  0  0
  -23.8014    5.4644  -33.5730 O   0  0  0  0  0  0  0  0  0  0  0  0
  -23.5482   -1.9800  -30.4066 O   0  0  0  0  0  0  0  0  0  0  0  0
  -22.8466   -3.3371  -29.7822 O   0  0  0  0  0  0  0  0  0  0  0  0
  -21.8603    3.9144  -34.9279 O   0  0  0  0  0  0  0  0  0  0  0  0
  -21.4470   -1.5687  -28.4105 O   0  0  0  0  0  0  0  0  0  0  0  0
  -21.4548    0.9661  -31.1054 O   0  0  0  0  0  0  0  0  0  0  0  0
  -21.4514    4.5578  -29.4667 O   0  0  0  0  0  0  0  0  0  0  0  0
  -19.9041    1.7995  -34.4118 O   0  0  0  0  0  0  0  0  0  0  0  0
  -18.2355    2.8883  -33.4391 O   0  0  0  0  0  0  0  0  0  0  0  0
  -19.9823    0.7616  -28.2229 N   0  0  0  0  0  0  0  0  0  0  0  0
  1  2  1  0
  2  6  1  0
  3 39  1  0
  4 40  1  0
  5 42  1  0
  6  7  1  0
  6  8  1  0
  6 41  1  0
  7 11  1  0
  7 39  1  0
  9 41  1  0
 10 12  1  0
 10 13  1  0
 10 40  1  0
 11 14  1  0
 11 42  1  0
 12 16  1  0
 12 43  2  0
 13 15  1  0
 14 20  1  0
 14 44  1  0
 15 18  1  0
 16 17  1  0
 16 21  1  0
 18 23  1  0
 19 23  1  0
 19 24  1  0
 20 24  1  0
 20 47  1  0
 21 27  1  0
 21 48  1  0
 22 26  1  0
 22 45  2  0
 22 46  1  0
 24 50  1  0
 25 26  1  0
 25 29  1  0
 25 47  1  0
 26 30  2  0
 27 31  1  0
 27 52  1  0
 28 32  1  0
 28 48  1  0
 28 49  1  0
 29 33  2  0
 29 50  1  0
 30 34  1  0
 30 53  1  0
 31 32  1  0
 31 36  1  0
 31 51  1  0
 33 34  1  0
 33 38  1  0
 34 37  1  0
 35 36  1  0
 35 37  1  0
 35 52  1  0
 36 56  1  0
 38 54  2  0
 38 55  1  0
M  END
$$$$

     RDKit          3D

 32 34  0  0  0  0  0  0  0  0999 V2000
  -31.3721    0.6259  -34.7342 C   0  0  0  0  0  0  0  0  0  0  0  0
  -29.0288    0.9413  -34.0604 C   0  0  0  0  0  0  0  0  0  0  0  0
  -28.7951    1.9964  -34.9283 C   0  0  0  0  0  0  0  0  0  0  0  0
  -27.9699    0.3213  -33.3400 C   0  0  0  0  0  0  0  0  0  0  0  0
  -27.4845    2.4553  -35.1248 C   0  0  0  0  0  0  0  0  0  0  0  0
  -26.6273    0.7463  -33.5447 C   0  0  0  0  0  0  0  0  0  0  0  0
  -26.4326    1.8205  -34.4711 C   0  0  0  0  0  0  0  0  0  0  0  0
  -25.5138    0.0912  -32.7643 C   0  0  0  0  0  0  0  0  0  0  0  0
  -25.3918    4.8874  -34.5486 C   0  0  0  0  0  0  0  0  0  0  0  0
  -25.0038    5.9698  -31.5949 C   0  0  0  0  0  0  0  0  0  0  0  0
  -25.1355    7.3140  -34.0012 C   0  0  0  0  0  0  0  0  0  0  0  0
  -24.7828    6.6796  -32.8323 C   0  0  0  0  0  0  0  0  0  0  0  0
  -24.1636    0.6141  -32.5432 C   0  0  0  0  0  0  0  0  0  0  0  0
  -24.0736    2.6242  -34.0925 C   0  0  0  0  0  0  0  0  0  0  0  0
  -24.1769    5.4194  -34.0308 C   0  0  0  0  0  0  0  0  0  0  0  0
  -24.0841    7.0941  -36.1529 C   0  0  0  0  0  0  0  0  0  0  0  0
  -23.9137    5.7935  -32.6338 C   0  0  0  0  0  0  0  0  0  0  0  0
  -23.4974   -1.6071  -31.3252 C   0  0  0  0  0  0  0  0  0  0  0  0
  -23.4803    6.3273  -35.0671 C   0  0  0  0  0  0  0  0  0  0  0  0
  -23.4519    1.3980  -33.6912 C   0  0  0  0  0  0  0  0  0  0  0  0
  -23.2375    3.8178  -34.4482 C   0  0  0  0  0  0  0  0  0  0  0  0
  -23.1261   -0.2641  -31.7919 C   0  0  0  0  0  0  0  0  0  0  0  0
  -22.4638   -2.5346  -30.9298 C   0  0  0  0  0  0  0  0  0  0  0  0
  -21.7704    0.1469  -31.5997 C   0  0  0  0  0  0  0  0  0  0  0  0
  -21.0970   -2.1132  -30.9572 C   0  0  0  0  0  0  0  0  0  0  0  0
  -20.7822   -0.7660  -31.1278 C   0  0  0  0  0  0  0  0  0  0  0  0
  -30.3199    0.4897  -33.7894 O   0  0  0  0  0  0  0  0  0  0  0  0
  -24.8295   -1.8026  -30.9647 O   0  0  0  0  0  0  0  0  0  0  0  0
  -24.6977    4.6591  -31.5068 O   0  0  0  0  0  0  0  0  0  0  0  0
  -21.1693    1.3959  -31.7979 O   0  0  0  0  0  0  0  0  0  0  0  0
  -19.9936   -2.9285  -30.6809 O   0  0  0  0  0  0  0  0  0  0  0  0
  -25.2858    2.4730  -34.9677 N   0  0  0  0  0  0  0  0  0  0  0  0
  1 27  1  0
  2  3  2  0
  2  4  1  0
  2 27  1  0
  3  5  1  0
  4  6  2  0
  5  7  2  0
  6  7  1  0
  6  8  1  0
  7 32  1  0
  8 13  1  0
  9 15  1  0
 10 12  1  0
 10 29  1  0
 11 12  2  0
 12 17  1  0
 13 20  1  0
 13 22  1  0
 14 20  1  0
 14 21  1  0
 14 32  1  0
 15 17  1  0
 15 19  1  0
 15 21  1  0
 16 19  1  0
 18 22  1  0
 18 23  2  0
 18 28  1  0
 22 24  1  0
 23 25  1  0
 24 26  2  0
 24 30  1  0
 25 26  1  0
 25 31  1  0
M  END
$$$$

     RDKit          3D

 27 31  0  0  0  0  0  0  0  0999 V2000
  -27.8802    2.8185  -33.3778 C   0  0  0  0  0  0  0  0  0  0  0  0
  -27.7523    4.2603  -33.8124 C   0  0  0  0  0  0  0  0  0  0  0  0
  -27.7577    5.2111  -31.4910 C   0  0  0  0  0  0  0  0  0  0  0  0
  -26.7977    2.3048  -32.3886 C   0  0  0  0  0  0  0  0  0  0  0  0
  -26.9326    5.1346  -32.8705 C   0  0  0  0  0  0  0  0  0  0  0  0
  -26.8365    6.5425  -33.3659 C   0  0  0  0  0  0  0  0  0  0  0  0
  -26.6739    0.7810  -32.4902 C   0  0  0  0  0  0  0  0  0  0  0  0
  -26.1658    7.0170  -34.5994 C   0  0  0  0  0  0  0  0  0  0  0  0
  -25.4940    0.3328  -31.6366 C   0  0  0  0  0  0  0  0  0  0  0  0
  -25.4937    4.6125  -32.5958 C   0  0  0  0  0  0  0  0  0  0  0  0
  -25.4167    3.0862  -32.6240 C   0  0  0  0  0  0  0  0  0  0  0  0
  -25.1353   -1.0564  -31.4294 C   0  0  0  0  0  0  0  0  0  0  0  0
  -24.9247    5.3277  -31.3532 C   0  0  0  0  0  0  0  0  0  0  0  0
  -24.2382    0.9966  -32.1643 C   0  0  0  0  0  0  0  0  0  0  0  0
  -24.2434    2.4886  -31.8381 C   0  0  0  0  0  0  0  0  0  0  0  0
  -23.7000   -1.0860  -31.2950 C   0  0  0  0  0  0  0  0  0  0  0  0
  -23.1853    0.1901  -31.5278 C   0  0  0  0  0  0  0  0  0  0  0  0
  -22.8914   -2.0923  -30.7383 C   0  0  0  0  0  0  0  0  0  0  0  0
  -22.8394    2.9508  -32.2884 C   0  0  0  0  0  0  0  0  0  0  0  0
  -21.8557    0.5932  -31.4108 C   0  0  0  0  0  0  0  0  0  0  0  0
  -21.4872   -1.7162  -30.3914 C   0  0  0  0  0  0  0  0  0  0  0  0
  -21.6555    2.0533  -31.6228 C   0  0  0  0  0  0  0  0  0  0  0  0
  -20.9855   -0.3637  -30.7726 C   0  0  0  0  0  0  0  0  0  0  0  0
  -26.1045    8.2952  -34.7545 O   0  0  0  0  0  0  0  0  0  0  0  0
  -25.8095    6.2043  -35.5786 O   0  0  0  0  0  0  0  0  0  0  0  0
  -24.4034    2.6903  -30.4138 O   0  0  0  0  0  0  0  0  0  0  0  0
  -20.7056   -2.5405  -29.8353 O   0  0  0  0  0  0  0  0  0  0  0  0
  1  2  1  0
  1  4  1  0
  2  5  1  0
  3  5  1  0
  4  7  1  0
  4 11  1  0
  5  6  1  0
  5 10  1  0
  6  8  1  0
  7  9  1  0
  8 24  2  0
  8 25  1  0
  9 12  1  0
  9 14  1  0
 10 11  1  0
 10 13  1  0
 11 15  1  0
 12 16  1  0
 14 15  1  0
 14 17  1  0
 15 19  1  0
 15 26  1  0
 16 17  2  0
 16 18  1  0
 17 20  1  0
 18 21  1  0
 19 22  1  0
 20 22  1  0
 20 23  2  0
 21 23  1  0
 21 27  2  0
M  END
$$$$

     RDKit          3D

 36 39  0  0  0  0  0  0  0  0999 V2000
  -31.6216   -2.7948  -37.0613 C   0  0  0  0  0  0  0  0  0  0  0  0
  -30.9554   -1.1582  -35.7941 C   0  0  0  0  0  0  0  0  0  0  0  0
  -30.6189    0.1359  -35.2700 C   0  0  0  0  0  0  0  0  0  0  0  0
  -30.2357   -2.2917  -35.3681 C   0  0  0  0  0  0  0  0  0  0  0  0
  -29.6283    0.2247  -34.3142 C   0  0  0  0  0  0  0  0  0  0  0  0
  -29.2493   -2.1710  -34.3713 C   0  0  0  0  0  0  0  0  0  0  0  0
  -28.9741   -0.9211  -33.8381 C   0  0  0  0  0  0  0  0  0  0  0  0
  -27.9986   -0.8293  -32.7562 C   0  0  0  0  0  0  0  0  0  0  0  0
  -26.0731    0.2044  -34.1310 C   0  0  0  0  0  0  0  0  0  0  0  0
  -25.7378   -0.3166  -31.8789 C   0  0  0  0  0  0  0  0  0  0  0  0
  -24.4849    0.2460  -32.3419 C   0  0  0  0  0  0  0  0  0  0  0  0
  -24.4894    0.5969  -33.6433 C   0  0  0  0  0  0  0  0  0  0  0  0
  -23.4306    0.5162  -31.3552 C   0  0  0  0  0  0  0  0  0  0  0  0
  -22.7156   -2.2781  -30.1752 C   0  0  0  0  0  0  0  0  0  0  0  0
  -22.1034    5.7123  -31.5882 C   0  0  0  0  0  0  0  0  0  0  0  0
  -21.7194   -1.3380  -30.6078 C   0  0  0  0  0  0  0  0  0  0  0  0
  -21.9169    4.7159  -32.4717 C   0  0  0  0  0  0  0  0  0  0  0  0
  -21.6039    5.6527  -30.2769 C   0  0  0  0  0  0  0  0  0  0  0  0
  -21.2475    3.5677  -32.0968 C   0  0  0  0  0  0  0  0  0  0  0  0
  -20.7266    3.4169  -30.8160 C   0  0  0  0  0  0  0  0  0  0  0  0
  -20.9299    4.4667  -29.8518 C   0  0  0  0  0  0  0  0  0  0  0  0
  -20.3595   -1.4399  -30.6481 C   0  0  0  0  0  0  0  0  0  0  0  0
  -19.9915    2.1996  -30.4822 C   0  0  0  0  0  0  0  0  0  0  0  0
  -19.6490   -2.7086  -30.4144 C   0  0  0  0  0  0  0  0  0  0  0  0
  -19.6114   -0.1963  -30.9241 C   0  0  0  0  0  0  0  0  0  0  0  0
  -30.6780   -3.3385  -35.9887 O   0  0  0  0  0  0  0  0  0  0  0  0
  -26.0340   -0.7362  -30.7255 O   0  0  0  0  0  0  0  0  0  0  0  0
  -23.6576    1.6252  -30.6713 O   0  0  0  0  0  0  0  0  0  0  0  0
  -23.2773    7.4303  -29.3267 O   0  0  0  0  0  0  0  0  0  0  0  0
  -21.2298    6.8485  -28.0899 O   0  0  0  0  0  0  0  0  0  0  0  0
  -21.2101    8.2359  -30.1198 O   0  0  0  0  0  0  0  0  0  0  0  0
  -31.9547   -1.4367  -36.7212 N   0  0  0  0  0  0  0  0  0  0  0  0
  -26.6746   -0.3149  -32.8914 N   0  0  0  0  0  0  0  0  0  0  0  0
  -22.8417   -0.4874  -30.2886 N   0  0  0  0  0  0  0  0  0  0  0  0
  -20.4529    0.9225  -31.0676 N   0  0  0  0  0  0  0  0  0  0  0  0
  -21.8065    7.0976  -29.3556 S   0  0  0  0  0  0  0  0  0  0  0  0
  1 26  1  0
  1 32  1  0
  2  3  1  0
  2  4  1  0
  2 32  1  0
  3  5  2  0
  4  6  2  0
  4 26  1  0
  5  7  1  0
  6  7  1  0
  7  8  1  0
  8 33  1  0
  9 12  1  0
  9 33  1  0
 10 11  1  0
 10 27  2  0
 10 33  1  0
 11 12  1  0
 11 13  1  0
 13 28  1  0
 13 34  1  0
 14 16  1  0
 15 17  2  0
 15 18  1  0
 16 22  1  0
 16 34  1  0
 17 19  1  0
 18 21  2  0
 18 36  1  0
 19 20  2  0
 20 21  1  0
 20 23  1  0
 22 24  1  0
 22 25  1  0
 23 35  2  3
 25 35  1  0
 29 36  1  0
 30 36  1  0
 31 36  1  0
M  END
$$$$

     RDKit          3D

 55 57  0  0  0  0  0  0  0  0999 V2000
  -30.3266    0.6883  -34.0456 C   0  0  0  0  0  0  0  0  0  0  0  0
  -30.2019    2.1820  -34.3787 C   0  0  0  0  0  0  0  0  0  0  0  0
  -29.0209    2.6679  -33.5689 C   0  0  0  0  0  0  0  0  0  0  0  0
  -28.9135    0.2338  -33.5759 C   0  0  0  0  0  0  0  0  0  0  0  0
  -28.3386    3.8771  -34.1398 C   0  0  0  0  0  0  0  0  0  0  0  0
  -28.0856    1.4616  -33.6351 C   0  0  0  0  0  0  0  0  0  0  0  0
  -27.9914    3.8012  -35.5232 C   0  0  0  0  0  0  0  0  0  0  0  0
  -27.3378    5.6296  -33.0615 C   0  0  0  0  0  0  0  0  0  0  0  0
  -27.1499    3.6999  -38.2795 C   0  0  0  0  0  0  0  0  0  0  0  0
  -27.0987    7.7378  -33.7972 C   0  0  0  0  0  0  0  0  0  0  0  0
  -26.8618    4.1268  -39.6790 C   0  0  0  0  0  0  0  0  0  0  0  0
  -26.2300    6.4769  -33.6301 C   0  0  0  0  0  0  0  0  0  0  0  0
  -26.2036    0.4339  -32.8386 C   0  0  0  0  0  0  0  0  0  0  0  0
  -25.7267   -0.0481  -31.4598 C   0  0  0  0  0  0  0  0  0  0  0  0
  -25.8893    3.4630  -37.4642 C   0  0  0  0  0  0  0  0  0  0  0  0
  -25.6168    6.4724  -32.3586 C   0  0  0  0  0  0  0  0  0  0  0  0
  -25.1868    0.4517  -33.8709 C   0  0  0  0  0  0  0  0  0  0  0  0
  -24.4960   -0.9746  -31.6214 C   0  0  0  0  0  0  0  0  0  0  0  0
  -24.5101    3.2635  -30.8248 C   0  0  0  0  0  0  0  0  0  0  0  0
  -24.5990    3.8719  -38.0809 C   0  0  0  0  0  0  0  0  0  0  0  0
  -24.2116    6.8929  -32.3383 C   0  0  0  0  0  0  0  0  0  0  0  0
  -24.1694    6.2421  -29.2220 C   0  0  0  0  0  0  0  0  0  0  0  0
  -23.8173    6.9858  -33.5800 C   0  0  0  0  0  0  0  0  0  0  0  0
  -23.7023    7.4049  -29.8804 C   0  0  0  0  0  0  0  0  0  0  0  0
  -23.4629    3.8777  -30.0109 C   0  0  0  0  0  0  0  0  0  0  0  0
  -23.4745    4.0273  -37.0927 C   0  0  0  0  0  0  0  0  0  0  0  0
  -23.4497    4.9808  -28.9754 C   0  0  0  0  0  0  0  0  0  0  0  0
  -23.2574    7.2378  -31.3568 C   0  0  0  0  0  0  0  0  0  0  0  0
  -22.8378    2.4490  -34.8039 C   0  0  0  0  0  0  0  0  0  0  0  0
  -22.7715    2.6436  -37.1901 C   0  0  0  0  0  0  0  0  0  0  0  0
  -22.6898    2.7675  -32.3909 C   0  0  0  0  0  0  0  0  0  0  0  0
  -22.4308    7.9092  -29.2865 C   0  0  0  0  0  0  0  0  0  0  0  0
  -22.3269    2.9104  -29.8559 C   0  0  0  0  0  0  0  0  0  0  0  0
  -22.3100    6.9637  -35.6210 C   0  0  0  0  0  0  0  0  0  0  0  0
  -22.4306    6.9669  -34.1069 C   0  0  0  0  0  0  0  0  0  0  0  0
  -21.9593    2.3608  -36.0132 C   0  0  0  0  0  0  0  0  0  0  0  0
  -22.0401    2.4604  -33.6328 C   0  0  0  0  0  0  0  0  0  0  0  0
  -22.1601    5.1177  -37.3684 C   0  0  0  0  0  0  0  0  0  0  0  0
  -21.7272    2.5160  -31.2115 C   0  0  0  0  0  0  0  0  0  0  0  0
  -21.5751    5.6764  -36.0443 C   0  0  0  0  0  0  0  0  0  0  0  0
  -21.2207    1.0821  -31.3086 C   0  0  0  0  0  0  0  0  0  0  0  0
  -28.6156   -0.7898  -34.4203 O   0  0  0  0  0  0  0  0  0  0  0  0
  -27.6131    4.6756  -36.2581 O   0  0  0  0  0  0  0  0  0  0  0  0
  -27.3989    4.3369  -33.2972 O   0  0  0  0  0  0  0  0  0  0  0  0
  -27.0146    1.5651  -32.7074 O   0  0  0  0  0  0  0  0  0  0  0  0
  -26.5689   -1.1088  -31.0553 O   0  0  0  0  0  0  0  0  0  0  0  0
  -25.9261    2.8148  -36.3560 O   0  0  0  0  0  0  0  0  0  0  0  0
  -25.6871    3.2168  -30.7638 O   0  0  0  0  0  0  0  0  0  0  0  0
  -23.0314    4.7759  -27.8220 O   0  0  0  0  0  0  0  0  0  0  0  0
  -22.6742    1.7416  -38.1303 O   0  0  0  0  0  0  0  0  0  0  0  0
  -22.0965    0.1660  -31.1062 O   0  0  0  0  0  0  0  0  0  0  0  0
  -22.2069    3.1459  -34.8124 O   0  0  0  0  0  0  0  0  0  0  0  0
  -21.2474    3.4468  -29.1840 O   0  0  0  0  0  0  0  0  0  0  0  0
  -20.1047    0.9158  -31.9127 O   0  0  0  0  0  0  0  0  0  0  0  0
  -23.9993    2.9307  -32.1463 N   0  0  0  0  0  0  0  0  0  0  0  0
  1  2  1  0
  1  4  1  0
  2  3  1  0
  3  5  1  0
  3  6  1  0
  4  6  1  0
  4 42  1  0
  5  7  1  0
  5 44  1  0
  6 45  1  0
  7 43  2  0
  8 12  1  0
  8 44  1  0
  9 11  1  0
  9 15  1  0
 10 12  1  0
 12 16  1  0
 13 14  1  0
 13 17  1  0
 13 45  1  0
 14 18  1  0
 14 46  1  0
 15 20  1  0
 15 47  2  0
 16 21  1  0
 19 25  1  0
 19 48  2  0
 19 55  1  0
 20 26  1  0
 21 23  1  0
 21 28  2  3
 22 24  1  0
 22 27  1  0
 23 35  2  3
 24 28  1  0
 24 32  1  0
 25 27  1  0
 25 33  1  0
 26 30  1  0
 26 38  1  0
 27 49  2  0
 29 36  1  0
 29 37  1  0
 29 52  1  0
 30 36  1  0
 30 50  1  0
 31 37  2  3
 31 39  1  0
 31 55  1  0
 33 39  1  0
 33 53  1  0
 34 35  1  0
 34 40  1  0
 38 40  1  0
 39 41  1  0
 41 51  2  0
 41 54  1  0
M  END
$$$$

     RDKit          3D

 36 39  0  0  0  0  0  0  0  0999 V2000
  -29.8634    0.2809  -33.7772 C   0  0  0  0  0  0  0  0  0  0  0  0
  -29.2403    1.4007  -33.2538 C   0  0  0  0  0  0  0  0  0  0  0  0
  -29.1302   -0.8562  -34.0835 C   0  0  0  0  0  0  0  0  0  0  0  0
  -27.7808   -0.8741  -33.8428 C   0  0  0  0  0  0  0  0  0  0  0  0
  -27.8626    1.4049  -33.0077 C   0  0  0  0  0  0  0  0  0  0  0  0
  -27.6090    3.8322  -32.4156 C   0  0  0  0  0  0  0  0  0  0  0  0
  -27.2362    5.3460  -38.0875 C   0  0  0  0  0  0  0  0  0  0  0  0
  -27.1488    0.2467  -33.2958 C   0  0  0  0  0  0  0  0  0  0  0  0
  -27.0840    2.4989  -32.3367 C   0  0  0  0  0  0  0  0  0  0  0  0
  -27.1301    3.9840  -38.3316 C   0  0  0  0  0  0  0  0  0  0  0  0
  -26.9933    5.8352  -36.8391 C   0  0  0  0  0  0  0  0  0  0  0  0
  -26.8164    3.1285  -37.3347 C   0  0  0  0  0  0  0  0  0  0  0  0
  -26.9096    5.9242  -33.3868 C   0  0  0  0  0  0  0  0  0  0  0  0
  -26.6114    3.5678  -36.0491 C   0  0  0  0  0  0  0  0  0  0  0  0
  -26.6829    4.9639  -35.7634 C   0  0  0  0  0  0  0  0  0  0  0  0
  -26.1044    5.4210  -34.5008 C   0  0  0  0  0  0  0  0  0  0  0  0
  -25.2338   -0.3882  -31.9304 C   0  0  0  0  0  0  0  0  0  0  0  0
  -25.2778    4.5307  -32.2028 C   0  0  0  0  0  0  0  0  0  0  0  0
  -23.7521   -0.3433  -32.0314 C   0  0  0  0  0  0  0  0  0  0  0  0
  -23.0111   -1.3814  -31.2600 C   0  0  0  0  0  0  0  0  0  0  0  0
  -22.3084    5.9390  -33.5756 C   0  0  0  0  0  0  0  0  0  0  0  0
  -21.9084    1.2519  -31.9389 C   0  0  0  0  0  0  0  0  0  0  0  0
  -21.8064    3.6197  -32.7746 C   0  0  0  0  0  0  0  0  0  0  0  0
  -21.8960    4.9587  -32.4465 C   0  0  0  0  0  0  0  0  0  0  0  0
  -21.5622   -1.0797  -31.2069 C   0  0  0  0  0  0  0  0  0  0  0  0
  -21.5767    2.7000  -31.7348 C   0  0  0  0  0  0  0  0  0  0  0  0
  -21.6788    5.3795  -31.1583 C   0  0  0  0  0  0  0  0  0  0  0  0
  -21.3576    4.4270  -30.1684 C   0  0  0  0  0  0  0  0  0  0  0  0
  -20.9819    0.2526  -31.3876 C   0  0  0  0  0  0  0  0  0  0  0  0
  -28.7688    4.0951  -32.5026 O   0  0  0  0  0  0  0  0  0  0  0  0
  -25.8099   -0.8025  -30.9535 O   0  0  0  0  0  0  0  0  0  0  0  0
  -26.6318    4.8433  -32.4123 N   0  0  0  0  0  0  0  0  0  0  0  0
  -25.7847    0.1442  -33.0636 N   0  0  0  0  0  0  0  0  0  0  0  0
  -23.2355    0.9767  -31.8341 N   0  0  0  0  0  0  0  0  0  0  0  0
  -21.2829    3.0832  -30.4870 N   0  0  0  0  0  0  0  0  0  0  0  0
  -29.7800   -2.1925  -34.7579 Cl  0  0  0  0  0  0  0  0  0  0  0  0
  1  2  2  0
  1  3  1  0
  2  5  1  0
  3  4  2  0
  3 36  1  0
  4  8  1  0
  5  8  2  0
  5  9  1  0
  6  9  1  0
  6 30  2  0
  6 32  1  0
  7 10  2  0
  7 11  1  0
  8 33  1  0
 10 12  1  0
 11 15  2  0
 12 14  2  0
 13 16  1  0
 13 32  1  0
 14 15  1  0
 15 16  1  0
 17 19  1  0
 17 31  2  0
 17 33  1  0
 18 32  1  0
 19 20  1  0
 19 34  1  0
 20 25  1  0
 21 24  1  0
 22 26  1  0
 22 29  1  0
 22 34  1  0
 23 24  1  0
 23 26  1  0
 24 27  2  0
 25 29  1  0
 26 35  2  0
 27 28  1  0
 28 35  1  0
M  END
$$$$

     RDKit          3D

 58 63  0  0  0  0  0  0  0  0999 V2000
  -32.1885    0.6840  -34.2344 C   0  0  0  0  0  0  0  0  0  0  0  0
  -31.7783    0.9585  -36.7672 C   0  0  0  0  0  0  0  0  0  0  0  0
  -31.6006    0.0345  -35.5168 C   0  0  0  0  0  0  0  0  0  0  0  0
  -31.4442    1.9911  -34.0219 C   0  0  0  0  0  0  0  0  0  0  0  0
  -30.7896   -2.9823  -36.2400 C   0  0  0  0  0  0  0  0  0  0  0  0
  -30.7809    2.1788  -37.0887 C   0  0  0  0  0  0  0  0  0  0  0  0
  -30.1115    2.0619  -34.6275 C   0  0  0  0  0  0  0  0  0  0  0  0
  -29.9860    2.7939  -35.9433 C   0  0  0  0  0  0  0  0  0  0  0  0
  -29.4516    0.7923  -34.5386 C   0  0  0  0  0  0  0  0  0  0  0  0
  -28.5539    0.7536  -33.5474 C   0  0  0  0  0  0  0  0  0  0  0  0
  -28.3968    3.0867  -36.2187 C   0  0  0  0  0  0  0  0  0  0  0  0
  -27.6885   -0.2855  -33.3854 C   0  0  0  0  0  0  0  0  0  0  0  0
  -26.5384    3.7642  -32.0785 C   0  0  0  0  0  0  0  0  0  0  0  0
  -26.0346    1.5300  -33.1641 C   0  0  0  0  0  0  0  0  0  0  0  0
  -25.5437    6.1345  -29.3400 C   0  0  0  0  0  0  0  0  0  0  0  0
  -25.2985    2.9537  -32.5065 C   0  0  0  0  0  0  0  0  0  0  0  0
  -25.3747    6.0352  -34.1096 C   0  0  0  0  0  0  0  0  0  0  0  0
  -25.0420    0.7039  -33.8512 C   0  0  0  0  0  0  0  0  0  0  0  0
  -24.8198    1.6063  -30.3545 C   0  0  0  0  0  0  0  0  0  0  0  0
  -24.4201    2.6098  -31.3562 C   0  0  0  0  0  0  0  0  0  0  0  0
  -24.3219    3.7729  -33.3381 C   0  0  0  0  0  0  0  0  0  0  0  0
  -24.1472    1.5384  -34.6878 C   0  0  0  0  0  0  0  0  0  0  0  0
  -24.2069    3.0793  -34.7073 C   0  0  0  0  0  0  0  0  0  0  0  0
  -24.1169    5.2930  -33.6502 C   0  0  0  0  0  0  0  0  0  0  0  0
  -24.1878    6.3320  -29.6922 C   0  0  0  0  0  0  0  0  0  0  0  0
  -23.9257    0.4919  -30.3396 C   0  0  0  0  0  0  0  0  0  0  0  0
  -23.4669    6.0848  -32.4605 C   0  0  0  0  0  0  0  0  0  0  0  0
  -23.6278    7.7337  -29.4897 C   0  0  0  0  0  0  0  0  0  0  0  0
  -23.3736    3.9809  -35.5848 C   0  0  0  0  0  0  0  0  0  0  0  0
  -23.2564    5.4047  -28.8604 C   0  0  0  0  0  0  0  0  0  0  0  0
  -23.0479    4.0338  -29.3760 C   0  0  0  0  0  0  0  0  0  0  0  0
  -22.5238   -2.2856  -30.2906 C   0  0  0  0  0  0  0  0  0  0  0  0
  -21.4278    3.7222  -29.6489 C   0  0  0  0  0  0  0  0  0  0  0  0
  -21.0488   -2.6542  -30.1428 C   0  0  0  0  0  0  0  0  0  0  0  0
  -20.8212   -4.0000  -30.7826 C   0  0  0  0  0  0  0  0  0  0  0  0
  -20.8211    3.4649  -31.0172 C   0  0  0  0  0  0  0  0  0  0  0  0
  -19.9656   -1.6394  -30.5019 C   0  0  0  0  0  0  0  0  0  0  0  0
  -20.1158    0.3693  -28.9006 C   0  0  0  0  0  0  0  0  0  0  0  0
  -20.1364    1.8339  -29.2439 C   0  0  0  0  0  0  0  0  0  0  0  0
  -19.3457    3.2085  -30.9670 C   0  0  0  0  0  0  0  0  0  0  0  0
  -18.5676   -1.9873  -29.7207 C   0  0  0  0  0  0  0  0  0  0  0  0
  -18.4508   -1.2986  -28.3841 C   0  0  0  0  0  0  0  0  0  0  0  0
  -32.3743    0.5136  -37.8309 O   0  0  0  0  0  0  0  0  0  0  0  0
  -32.1462   -1.2451  -35.6843 O   0  0  0  0  0  0  0  0  0  0  0  0
  -31.7896   -2.0340  -36.7185 O   0  0  0  0  0  0  0  0  0  0  0  0
  -30.1377   -0.2324  -35.2501 O   0  0  0  0  0  0  0  0  0  0  0  0
  -26.6404    0.3628  -32.3841 O   0  0  0  0  0  0  0  0  0  0  0  0
  -26.0904    1.5383  -30.0617 O   0  0  0  0  0  0  0  0  0  0  0  0
  -24.2909    6.3947  -31.3977 O   0  0  0  0  0  0  0  0  0  0  0  0
  -23.2222    5.2098  -34.8685 O   0  0  0  0  0  0  0  0  0  0  0  0
  -22.9877    0.3030  -31.0340 O   0  0  0  0  0  0  0  0  0  0  0  0
  -22.2451    3.4499  -36.1579 O   0  0  0  0  0  0  0  0  0  0  0  0
  -22.2891    6.3701  -32.3857 O   0  0  0  0  0  0  0  0  0  0  0  0
  -21.2894    2.4998  -28.8677 O   0  0  0  0  0  0  0  0  0  0  0  0
  -20.9192    4.8459  -29.1182 O   0  0  0  0  0  0  0  0  0  0  0  0
  -20.4044   -0.3482  -30.1231 O   0  0  0  0  0  0  0  0  0  0  0  0
  -19.7997    1.9717  -30.5320 O   0  0  0  0  0  0  0  0  0  0  0  0
  -18.7185    0.0777  -28.5597 O   0  0  0  0  0  0  0  0  0  0  0  0
  1  3  1  0
  1  4  1  0
  2  3  1  0
  2  6  1  0
  2 43  1  0
  3 44  1  0
  3 46  1  0
  4  7  1  0
  5 45  1  0
  6  8  1  0
  7  8  1  0
  7  9  1  0
  8 11  1  0
  9 10  1  0
  9 46  1  0
 10 12  1  0
 12 47  1  0
 13 16  1  0
 14 16  1  0
 14 18  1  0
 14 47  1  0
 15 25  1  0
 16 20  1  0
 16 21  1  0
 17 24  1  0
 18 22  1  0
 19 20  1  0
 19 26  1  0
 19 48  1  0
 21 23  1  0
 21 24  1  0
 22 23  1  0
 23 29  1  0
 24 27  1  0
 24 50  1  0
 25 28  1  0
 25 30  1  0
 25 49  1  0
 26 51  2  0
 27 49  1  0
 27 53  2  0
 29 50  1  0
 29 52  1  0
 30 31  1  0
 31 33  1  0
 32 34  1  0
 33 36  1  0
 33 54  1  0
 33 55  1  0
 34 35  1  0
 34 37  1  0
 36 40  1  0
 37 41  1  0
 37 56  1  0
 38 39  1  0
 38 56  1  0
 38 58  1  0
 39 54  1  0
 39 57  1  0
 40 57  1  0
 41 42  1  0
 42 58  1  0
 44 45  1  0
M  END
$$$$

     RDKit          3D

 28 31  0  0  0  0  0  0  0  0999 V2000
  -29.1320   -0.7230  -33.9362 C   0  0  0  0  0  0  0  0  0  0  0  0
  -28.9893    0.4751  -34.6141 C   0  0  0  0  0  0  0  0  0  0  0  0
  -27.8626    1.2254  -34.4241 C   0  0  0  0  0  0  0  0  0  0  0  0
  -27.0258   -0.4208  -32.8720 C   0  0  0  0  0  0  0  0  0  0  0  0
  -26.8827    0.7622  -33.5340 C   0  0  0  0  0  0  0  0  0  0  0  0
  -25.9331   -0.9549  -32.1572 C   0  0  0  0  0  0  0  0  0  0  0  0
  -25.6540    1.4097  -33.4749 C   0  0  0  0  0  0  0  0  0  0  0  0
  -25.4798    2.7248  -34.0475 C   0  0  0  0  0  0  0  0  0  0  0  0
  -25.3834    2.9705  -35.4100 C   0  0  0  0  0  0  0  0  0  0  0  0
  -25.4337    3.7870  -33.1725 C   0  0  0  0  0  0  0  0  0  0  0  0
  -25.2590    5.0639  -33.6171 C   0  0  0  0  0  0  0  0  0  0  0  0
  -25.2035    4.2775  -35.8694 C   0  0  0  0  0  0  0  0  0  0  0  0
  -25.1759    5.2883  -34.9584 C   0  0  0  0  0  0  0  0  0  0  0  0
  -25.1100    6.1384  -32.6531 C   0  0  0  0  0  0  0  0  0  0  0  0
  -24.6888   -0.2971  -32.2324 C   0  0  0  0  0  0  0  0  0  0  0  0
  -23.6402   -2.1848  -31.1002 C   0  0  0  0  0  0  0  0  0  0  0  0
  -23.4974   -0.9201  -31.6428 C   0  0  0  0  0  0  0  0  0  0  0  0
  -22.5925   -2.8185  -30.4971 C   0  0  0  0  0  0  0  0  0  0  0  0
  -22.2772   -0.3143  -31.6297 C   0  0  0  0  0  0  0  0  0  0  0  0
  -21.3588   -2.2452  -30.4345 C   0  0  0  0  0  0  0  0  0  0  0  0
  -21.1857   -0.9841  -31.0157 C   0  0  0  0  0  0  0  0  0  0  0  0
  -19.8278   -0.4100  -31.0540 C   0  0  0  0  0  0  0  0  0  0  0  0
  -30.8762    0.3315  -35.9330 O   0  0  0  0  0  0  0  0  0  0  0  0
  -19.7113    0.7836  -31.4247 O   0  0  0  0  0  0  0  0  0  0  0  0
  -18.8307   -1.1811  -30.7992 O   0  0  0  0  0  0  0  0  0  0  0  0
  -29.7631    0.9523  -35.5639 N   0  0  0  0  0  0  0  0  0  0  0  0
  -28.2216   -1.0882  -33.0378 N   0  0  0  0  0  0  0  0  0  0  0  0
  -24.5896    0.8790  -32.8804 N   0  0  0  0  0  0  0  0  0  0  0  0
  1  2  1  0
  1 27  2  0
  2  3  1  0
  2 26  2  3
  3  5  1  0
  4  5  2  0
  4  6  1  0
  4 27  1  0
  5  7  1  0
  6 15  2  0
  7  8  1  0
  7 28  2  0
  8  9  2  0
  8 10  1  0
  9 12  1  0
 10 11  2  0
 11 13  1  0
 11 14  1  0
 12 13  2  0
 15 17  1  0
 15 28  1  0
 16 17  1  0
 16 18  1  0
 17 19  2  0
 18 20  2  0
 19 21  1  0
 20 21  1  0
 21 22  1  0
 22 24  2  0
 22 25  1  0
 23 26  1  0
M  END
$$$$

     RDKit          3D

 25 28  0  0  0  0  0  0  0  0999 V2000
  -28.6333    2.5582  -35.1073 C   0  0  0  0  0  0  0  0  0  0  0  0
  -27.4811    3.2704  -34.3842 C   0  0  0  0  0  0  0  0  0  0  0  0
  -27.0558    1.2062  -32.9053 C   0  0  0  0  0  0  0  0  0  0  0  0
  -26.8427    4.2870  -35.3848 C   0  0  0  0  0  0  0  0  0  0  0  0
  -26.4314    2.2476  -33.9103 C   0  0  0  0  0  0  0  0  0  0  0  0
  -26.3140    3.5164  -36.7169 C   0  0  0  0  0  0  0  0  0  0  0  0
  -25.9649    0.2054  -32.4846 C   0  0  0  0  0  0  0  0  0  0  0  0
  -25.7555    5.0892  -34.6464 C   0  0  0  0  0  0  0  0  0  0  0  0
  -25.2484    3.0258  -33.2853 C   0  0  0  0  0  0  0  0  0  0  0  0
  -25.2760    6.3085  -35.3692 C   0  0  0  0  0  0  0  0  0  0  0  0
  -25.0314    1.7389  -30.6207 C   0  0  0  0  0  0  0  0  0  0  0  0
  -24.6834    0.9722  -31.9469 C   0  0  0  0  0  0  0  0  0  0  0  0
  -24.6905    4.0948  -34.2848 C   0  0  0  0  0  0  0  0  0  0  0  0
  -24.1622    2.0057  -32.9710 C   0  0  0  0  0  0  0  0  0  0  0  0
  -23.8714   -1.1728  -30.8340 C   0  0  0  0  0  0  0  0  0  0  0  0
  -23.5496   -0.0574  -31.6605 C   0  0  0  0  0  0  0  0  0  0  0  0
  -22.8333   -2.0265  -30.3484 C   0  0  0  0  0  0  0  0  0  0  0  0
  -22.8720    2.6399  -32.4251 C   0  0  0  0  0  0  0  0  0  0  0  0
  -22.1846    0.3805  -31.6577 C   0  0  0  0  0  0  0  0  0  0  0  0
  -21.7660    1.6070  -32.3231 C   0  0  0  0  0  0  0  0  0  0  0  0
  -21.4794   -1.7278  -30.5193 C   0  0  0  0  0  0  0  0  0  0  0  0
  -21.1675   -0.4897  -31.1738 C   0  0  0  0  0  0  0  0  0  0  0  0
  -27.6654    4.9944  -36.1069 O   0  0  0  0  0  0  0  0  0  0  0  0
  -23.0664   -3.1253  -29.6396 O   0  0  0  0  0  0  0  0  0  0  0  0
  -20.6084   -2.4035  -29.8196 O   0  0  0  0  0  0  0  0  0  0  0  0
  1  2  1  0
  2  4  1  0
  2  5  1  0
  3  5  1  0
  3  7  1  0
  4  6  1  0
  4  8  1  0
  4 23  1  0
  5  9  1  0
  7 12  1  0
  8 10  1  0
  8 13  1  0
  9 13  1  0
  9 14  1  0
 11 12  1  0
 12 14  1  0
 12 16  1  0
 14 18  1  0
 15 16  1  0
 15 17  1  0
 16 19  1  0
 17 21  2  0
 17 24  1  0
 18 20  1  0
 19 20  1  0
 19 22  2  0
 21 22  1  0
 21 25  1  0
M  END
$$$$

     RDKit          3D

 32 36  0  0  0  0  0  0  0  0999 V2000
  -31.4758   -0.7564  -35.3860 C   0  0  0  0  0  0  0  0  0  0  0  0
  -31.1390    0.3293  -34.6235 C   0  0  0  0  0  0  0  0  0  0  0  0
  -30.6289   -1.8752  -35.3979 C   0  0  0  0  0  0  0  0  0  0  0  0
  -30.0027    0.3353  -33.8513 C   0  0  0  0  0  0  0  0  0  0  0  0
  -29.4617   -1.8192  -34.6170 C   0  0  0  0  0  0  0  0  0  0  0  0
  -29.1261   -0.7408  -33.8503 C   0  0  0  0  0  0  0  0  0  0  0  0
  -27.7633   -1.3560  -31.8245 C   0  0  0  0  0  0  0  0  0  0  0  0
  -27.9037   -0.7174  -33.0737 C   0  0  0  0  0  0  0  0  0  0  0  0
  -26.6823   -0.0586  -33.3410 C   0  0  0  0  0  0  0  0  0  0  0  0
  -26.2236    0.7237  -34.4032 C   0  0  0  0  0  0  0  0  0  0  0  0
  -25.8130   -0.4631  -32.2984 C   0  0  0  0  0  0  0  0  0  0  0  0
  -24.9736    1.2373  -34.5241 C   0  0  0  0  0  0  0  0  0  0  0  0
  -24.4894   -0.0903  -32.2352 C   0  0  0  0  0  0  0  0  0  0  0  0
  -22.9087    5.7603  -33.0310 C   0  0  0  0  0  0  0  0  0  0  0  0
  -22.4720    4.4445  -33.0997 C   0  0  0  0  0  0  0  0  0  0  0  0
  -22.6562    6.5125  -31.8683 C   0  0  0  0  0  0  0  0  0  0  0  0
  -22.4316   -0.7762  -31.2394 C   0  0  0  0  0  0  0  0  0  0  0  0
  -22.0320   -3.0752  -30.9626 C   0  0  0  0  0  0  0  0  0  0  0  0
  -21.7535    3.9172  -32.0085 C   0  0  0  0  0  0  0  0  0  0  0  0
  -21.9282    5.9293  -30.8387 C   0  0  0  0  0  0  0  0  0  0  0  0
  -21.6317    0.3339  -31.3679 C   0  0  0  0  0  0  0  0  0  0  0  0
  -21.3009    2.5557  -32.0636 C   0  0  0  0  0  0  0  0  0  0  0  0
  -20.3186   -0.0530  -31.1836 C   0  0  0  0  0  0  0  0  0  0  0  0
  -20.2404    2.3031  -32.6220 O   0  0  0  0  0  0  0  0  0  0  0  0
  -28.6169   -2.0079  -31.1204 N   0  0  0  0  0  0  0  0  0  0  0  0
  -26.5193   -1.2251  -31.3480 N   0  0  0  0  0  0  0  0  0  0  0  0
  -23.7851   -0.7400  -31.2292 N   0  0  0  0  0  0  0  0  0  0  0  0
  -22.1315    1.6021  -31.5655 N   0  0  0  0  0  0  0  0  0  0  0  0
  -21.5588   -1.7646  -30.9688 N   0  0  0  0  0  0  0  0  0  0  0  0
  -21.4854    4.6543  -30.9190 N   0  0  0  0  0  0  0  0  0  0  0  0
  -20.2448   -1.4191  -30.8948 N   0  0  0  0  0  0  0  0  0  0  0  0
  -23.8490    0.9194  -33.4412 S   0  0  0  0  0  0  0  0  0  0  0  0
  1  2  2  0
  1  3  1  0
  2  4  1  0
  3  5  2  0
  4  6  2  0
  5  6  1  0
  6  8  1  0
  7  8  1  0
  7 25  2  0
  7 26  1  0
  8  9  2  0
  9 10  1  0
  9 11  1  0
 10 12  2  0
 11 13  2  0
 11 26  1  0
 12 32  1  0
 13 27  1  0
 13 32  1  0
 14 15  2  0
 14 16  1  0
 15 19  1  0
 16 20  2  0
 17 21  2  0
 17 27  1  0
 17 29  1  0
 18 29  1  0
 19 22  1  0
 19 30  2  0
 20 30  1  0
 21 23  1  0
 21 28  1  0
 22 24  2  0
 22 28  1  0
 23 31  1  0
 29 31  1  0
M  END
$$$$

     RDKit          3D

 21 23  0  0  0  0  0  0  0  0999 V2000
  -28.4494    1.3654  -34.6215 C   0  0  0  0  0  0  0  0  0  0  0  0
  -28.0688    0.4661  -33.6317 C   0  0  0  0  0  0  0  0  0  0  0  0
  -27.5330    2.1390  -35.3037 C   0  0  0  0  0  0  0  0  0  0  0  0
  -26.6883    0.3543  -33.2947 C   0  0  0  0  0  0  0  0  0  0  0  0
  -26.1361   -0.5671  -32.3170 C   0  0  0  0  0  0  0  0  0  0  0  0
  -26.1984    2.0574  -34.9511 C   0  0  0  0  0  0  0  0  0  0  0  0
  -25.7335    1.1943  -33.9669 C   0  0  0  0  0  0  0  0  0  0  0  0
  -24.7038   -0.5199  -32.0732 C   0  0  0  0  0  0  0  0  0  0  0  0
  -24.0687   -1.3244  -31.0896 C   0  0  0  0  0  0  0  0  0  0  0  0
  -23.9417    0.4758  -32.7391 C   0  0  0  0  0  0  0  0  0  0  0  0
  -22.7113   -1.0752  -30.8201 C   0  0  0  0  0  0  0  0  0  0  0  0
  -22.5644    0.6576  -32.4527 C   0  0  0  0  0  0  0  0  0  0  0  0
  -21.9531   -0.1074  -31.4709 C   0  0  0  0  0  0  0  0  0  0  0  0
  -29.8054    1.7059  -34.8231 O   0  0  0  0  0  0  0  0  0  0  0  0
  -28.9942   -0.2220  -33.0558 O   0  0  0  0  0  0  0  0  0  0  0  0
  -27.8827    2.9416  -36.2740 O   0  0  0  0  0  0  0  0  0  0  0  0
  -26.9212   -1.3826  -31.6722 O   0  0  0  0  0  0  0  0  0  0  0  0
  -25.2772    2.8080  -35.5771 O   0  0  0  0  0  0  0  0  0  0  0  0
  -24.4392    1.2298  -33.6967 O   0  0  0  0  0  0  0  0  0  0  0  0
  -22.0530   -1.7917  -29.8457 O   0  0  0  0  0  0  0  0  0  0  0  0
  -21.7926    1.7128  -33.0694 O   0  0  0  0  0  0  0  0  0  0  0  0
  1  2  2  0
  1  3  1  0
  1 14  1  0
  2  4  1  0
  2 15  1  0
  3  6  2  0
  3 16  1  0
  4  5  1  0
  4  7  2  0
  5  8  2  0
  5 17  1  0
  6  7  1  0
  6 18  1  0
  7 19  1  0
  8  9  1  0
  8 10  1  0
  9 11  1  0
 10 12  2  0
 10 19  1  0
 11 13  2  0
 11 20  1  0
 12 13  1  0
 12 21  1  0
M  END
$$$$

     RDKit          3D

 54 56  0  0  0  0  0  0  0  0999 V2000
  -31.4354    4.8615  -33.0134 C   0  0  0  0  0  0  0  0  0  0  0  0
  -29.9698    1.4694  -33.7544 C   0  0  0  0  0  0  0  0  0  0  0  0
  -29.8854    4.8585  -32.8220 C   0  0  0  0  0  0  0  0  0  0  0  0
  -29.5878    6.0848  -34.9878 C   0  0  0  0  0  0  0  0  0  0  0  0
  -29.1127    2.6546  -33.5541 C   0  0  0  0  0  0  0  0  0  0  0  0
  -29.1842    4.8552  -34.1657 C   0  0  0  0  0  0  0  0  0  0  0  0
  -27.5947   -0.9130  -33.0065 C   0  0  0  0  0  0  0  0  0  0  0  0
  -27.4802    1.6749  -33.0825 C   0  0  0  0  0  0  0  0  0  0  0  0
  -27.6913    4.7301  -33.9893 C   0  0  0  0  0  0  0  0  0  0  0  0
  -27.1605    5.6312  -32.9727 C   0  0  0  0  0  0  0  0  0  0  0  0
  -26.9424   -1.2724  -31.7843 C   0  0  0  0  0  0  0  0  0  0  0  0
  -25.7861    5.6269  -32.6410 C   0  0  0  0  0  0  0  0  0  0  0  0
  -25.5053    1.2208  -31.0527 C   0  0  0  0  0  0  0  0  0  0  0  0
  -25.3842    5.6807  -31.2577 C   0  0  0  0  0  0  0  0  0  0  0  0
  -24.9297   -0.1615  -30.8369 C   0  0  0  0  0  0  0  0  0  0  0  0
  -24.7953    5.7557  -33.6721 C   0  0  0  0  0  0  0  0  0  0  0  0
  -24.0894    5.8365  -30.9374 C   0  0  0  0  0  0  0  0  0  0  0  0
  -23.5677   -0.4752  -31.4516 C   0  0  0  0  0  0  0  0  0  0  0  0
  -23.2403    4.7795  -28.9777 C   0  0  0  0  0  0  0  0  0  0  0  0
  -23.4536    5.8930  -33.3114 C   0  0  0  0  0  0  0  0  0  0  0  0
  -23.0959    5.9354  -31.9291 C   0  0  0  0  0  0  0  0  0  0  0  0
  -22.9353   -1.7371  -31.0376 C   0  0  0  0  0  0  0  0  0  0  0  0
  -22.7556    1.6169  -36.4266 C   0  0  0  0  0  0  0  0  0  0  0  0
  -22.7631    4.9357  -27.6363 C   0  0  0  0  0  0  0  0  0  0  0  0
  -22.3916    3.5924  -35.0944 C   0  0  0  0  0  0  0  0  0  0  0  0
  -22.3956    5.0438  -35.5361 C   0  0  0  0  0  0  0  0  0  0  0  0
  -22.3312    6.0177  -34.3284 C   0  0  0  0  0  0  0  0  0  0  0  0
  -22.1201    3.7779  -26.9962 C   0  0  0  0  0  0  0  0  0  0  0  0
  -21.9506    3.7258  -25.5958 C   0  0  0  0  0  0  0  0  0  0  0  0
  -21.6289    2.7096  -27.7787 C   0  0  0  0  0  0  0  0  0  0  0  0
  -21.3467    0.5125  -31.2824 C   0  0  0  0  0  0  0  0  0  0  0  0
  -21.2628    2.2003  -33.0382 C   0  0  0  0  0  0  0  0  0  0  0  0
  -21.4247    2.5855  -24.8044 C   0  0  0  0  0  0  0  0  0  0  0  0
  -21.3525    3.5376  -33.8491 C   0  0  0  0  0  0  0  0  0  0  0  0
  -21.1207    1.5327  -27.1815 C   0  0  0  0  0  0  0  0  0  0  0  0
  -20.9928    1.9238  -31.6293 C   0  0  0  0  0  0  0  0  0  0  0  0
  -20.9254    1.5746  -25.7647 C   0  0  0  0  0  0  0  0  0  0  0  0
  -20.8119    1.9633  -35.4814 C   0  0  0  0  0  0  0  0  0  0  0  0
  -20.2611    2.2733  -34.0743 C   0  0  0  0  0  0  0  0  0  0  0  0
  -20.0019    2.6912  -30.9272 C   0  0  0  0  0  0  0  0  0  0  0  0
  -29.5039    3.5661  -32.3481 O   0  0  0  0  0  0  0  0  0  0  0  0
  -29.4614    3.6367  -34.8152 O   0  0  0  0  0  0  0  0  0  0  0  0
  -27.8467   -2.1349  -31.4449 O   0  0  0  0  0  0  0  0  0  0  0  0
  -26.2663    5.5226  -30.2754 O   0  0  0  0  0  0  0  0  0  0  0  0
  -25.8420   -1.1829  -31.1166 O   0  0  0  0  0  0  0  0  0  0  0  0
  -23.4805    5.1672  -36.4759 O   0  0  0  0  0  0  0  0  0  0  0  0
  -23.3023   -2.5344  -30.1875 O   0  0  0  0  0  0  0  0  0  0  0  0
  -23.2974    3.7128  -29.6246 O   0  0  0  0  0  0  0  0  0  0  0  0
  -22.6583    0.5407  -31.0567 O   0  0  0  0  0  0  0  0  0  0  0  0
  -22.0944   -2.1908  -31.8715 O   0  0  0  0  0  0  0  0  0  0  0  0
  -22.1315    4.8317  -24.3742 O   0  0  0  0  0  0  0  0  0  0  0  0
  -21.8534    2.7089  -36.0682 O   0  0  0  0  0  0  0  0  0  0  0  0
  -21.8988    5.9795  -31.5001 O   0  0  0  0  0  0  0  0  0  0  0  0
  -23.6893    5.8725  -29.5700 N   0  0  0  0  0  0  0  0  0  0  0  0
  1  3  1  0
  2  5  1  0
  3  6  1  0
  3 41  1  0
  4  6  1  0
  5  8  1  0
  5 41  1  0
  5 42  1  0
  6  9  1  0
  6 42  1  0
  7 11  1  0
  9 10  1  0
 10 12  1  0
 11 43  2  0
 11 45  1  0
 12 14  1  0
 12 16  1  0
 13 15  1  0
 14 17  2  0
 14 44  1  0
 15 18  1  0
 15 45  1  0
 16 20  2  0
 17 21  1  0
 17 54  1  0
 18 22  1  0
 18 49  1  0
 19 24  1  0
 19 48  2  0
 19 54  1  0
 20 21  1  0
 20 27  1  0
 21 53  2  0
 22 47  2  0
 22 50  1  0
 23 52  1  0
 24 28  1  0
 25 26  1  0
 25 34  1  0
 26 27  1  0
 26 46  1  0
 28 29  1  0
 28 30  2  0
 29 33  1  0
 29 51  1  0
 30 35  1  0
 31 36  1  0
 31 49  1  0
 32 34  1  0
 32 36  1  0
 32 39  1  0
 33 37  1  0
 35 37  2  0
 36 40  1  0
 38 39  1  0
 38 52  1  0
M  END
$$$$

     RDKit          3D

 39 40  0  0  0  0  0  0  0  0999 V2000
  -30.2597    3.3492  -33.0163 C   0  0  0  0  0  0  0  0  0  0  0  0
  -30.1916    1.0992  -33.3258 C   0  0  0  0  0  0  0  0  0  0  0  0
  -28.7855    3.4693  -34.9330 C   0  0  0  0  0  0  0  0  0  0  0  0
  -28.7926    4.0409  -36.3624 C   0  0  0  0  0  0  0  0  0  0  0  0
  -28.6728   -1.2848  -33.2320 C   0  0  0  0  0  0  0  0  0  0  0  0
  -28.6711    1.1815  -33.7684 C   0  0  0  0  0  0  0  0  0  0  0  0
  -28.6070    1.9466  -35.1128 C   0  0  0  0  0  0  0  0  0  0  0  0
  -28.2327   -1.8312  -32.0617 C   0  0  0  0  0  0  0  0  0  0  0  0
  -28.2590   -0.2759  -34.0951 C   0  0  0  0  0  0  0  0  0  0  0  0
  -27.6210    3.9818  -34.0296 C   0  0  0  0  0  0  0  0  0  0  0  0
  -27.5333    5.7905  -32.1564 C   0  0  0  0  0  0  0  0  0  0  0  0
  -27.3769    5.4551  -33.6872 C   0  0  0  0  0  0  0  0  0  0  0  0
  -26.6865   -0.2986  -34.2239 C   0  0  0  0  0  0  0  0  0  0  0  0
  -26.4892    5.7075  -31.1112 C   0  0  0  0  0  0  0  0  0  0  0  0
  -26.1495    6.0674  -34.3165 C   0  0  0  0  0  0  0  0  0  0  0  0
  -25.8203    0.8164  -33.5599 C   0  0  0  0  0  0  0  0  0  0  0  0
  -24.7637   -0.4130  -31.6560 C   0  0  0  0  0  0  0  0  0  0  0  0
  -24.9420    5.2059  -34.6551 C   0  0  0  0  0  0  0  0  0  0  0  0
  -24.3812    5.1763  -35.9450 C   0  0  0  0  0  0  0  0  0  0  0  0
  -23.2499   -0.6917  -31.5948 C   0  0  0  0  0  0  0  0  0  0  0  0
  -23.3834    4.1990  -35.9214 C   0  0  0  0  0  0  0  0  0  0  0  0
  -23.0371    3.7362  -34.5829 C   0  0  0  0  0  0  0  0  0  0  0  0
  -22.1823    0.4495  -31.6243 C   0  0  0  0  0  0  0  0  0  0  0  0
  -21.9303    2.8116  -34.5476 C   0  0  0  0  0  0  0  0  0  0  0  0
  -21.6022    2.1515  -35.8181 C   0  0  0  0  0  0  0  0  0  0  0  0
  -21.5319    2.0570  -33.3653 C   0  0  0  0  0  0  0  0  0  0  0  0
  -20.6976    0.1790  -31.2603 C   0  0  0  0  0  0  0  0  0  0  0  0
  -20.0935   -0.8853  -30.5983 C   0  0  0  0  0  0  0  0  0  0  0  0
  -30.0351    3.8221  -34.3232 O   0  0  0  0  0  0  0  0  0  0  0  0
  -29.7001    1.3962  -35.9770 O   0  0  0  0  0  0  0  0  0  0  0  0
  -28.5152    6.2233  -34.1774 O   0  0  0  0  0  0  0  0  0  0  0  0
  -26.6608    6.6397  -30.1738 O   0  0  0  0  0  0  0  0  0  0  0  0
  -25.8389    7.3218  -33.9086 O   0  0  0  0  0  0  0  0  0  0  0  0
  -25.5002   -0.9049  -30.8111 O   0  0  0  0  0  0  0  0  0  0  0  0
  -25.2326    0.5518  -32.4643 O   0  0  0  0  0  0  0  0  0  0  0  0
  -24.6555    5.7607  -37.0983 O   0  0  0  0  0  0  0  0  0  0  0  0
  -24.0826    4.4394  -33.8227 O   0  0  0  0  0  0  0  0  0  0  0  0
  -20.3519    2.1741  -32.9760 O   0  0  0  0  0  0  0  0  0  0  0  0
  -22.4226    1.2151  -32.7596 N   0  0  0  0  0  0  0  0  0  0  0  0
  1 29  1  0
  2  6  1  0
  3  4  1  0
  3  7  1  0
  3 10  1  0
  3 29  1  0
  5  8  2  0
  5  9  1  0
  6  7  1  0
  6  9  1  0
  7 30  1  0
  9 13  1  0
 10 12  1  0
 11 12  1  0
 11 14  1  0
 12 15  1  0
 12 31  1  0
 13 16  1  0
 14 32  1  0
 15 18  1  0
 15 33  1  0
 16 35  1  0
 17 20  1  0
 17 34  2  0
 17 35  1  0
 18 19  2  0
 18 37  1  0
 19 21  1  0
 19 36  1  0
 20 23  1  0
 21 22  1  0
 22 24  1  0
 22 37  1  0
 23 27  1  0
 23 39  1  0
 24 25  1  0
 24 26  1  0
 26 38  2  0
 26 39  1  0
 27 28  1  0
M  END
$$$$

     RDKit          3D

 32 35  0  0  0  0  0  0  0  0999 V2000
  -29.6059    1.1403  -34.3401 C   0  0  0  0  0  0  0  0  0  0  0  0
  -29.3644    1.4752  -35.8090 C   0  0  0  0  0  0  0  0  0  0  0  0
  -28.4286    0.8322  -33.5300 C   0  0  0  0  0  0  0  0  0  0  0  0
  -27.9338   -0.4920  -33.4325 C   0  0  0  0  0  0  0  0  0  0  0  0
  -27.7609    1.8803  -32.8263 C   0  0  0  0  0  0  0  0  0  0  0  0
  -26.7535   -0.7814  -32.7287 C   0  0  0  0  0  0  0  0  0  0  0  0
  -26.5550    1.6230  -32.1130 C   0  0  0  0  0  0  0  0  0  0  0  0
  -26.5470    6.4694  -32.3673 C   0  0  0  0  0  0  0  0  0  0  0  0
  -26.3733    4.0966  -31.3482 C   0  0  0  0  0  0  0  0  0  0  0  0
  -26.0394    0.2791  -32.0794 C   0  0  0  0  0  0  0  0  0  0  0  0
  -25.8103    2.6897  -31.3952 C   0  0  0  0  0  0  0  0  0  0  0  0
  -24.7926    0.0053  -31.3839 C   0  0  0  0  0  0  0  0  0  0  0  0
  -24.6184    2.4150  -30.6994 C   0  0  0  0  0  0  0  0  0  0  0  0
  -24.6316    5.0622  -32.8166 C   0  0  0  0  0  0  0  0  0  0  0  0
  -24.2583   -1.2829  -31.4187 C   0  0  0  0  0  0  0  0  0  0  0  0
  -24.3143    4.3081  -33.9691 C   0  0  0  0  0  0  0  0  0  0  0  0
  -24.1021    1.0515  -30.7134 C   0  0  0  0  0  0  0  0  0  0  0  0
  -23.5759    5.7079  -32.0961 C   0  0  0  0  0  0  0  0  0  0  0  0
  -23.0043   -1.5393  -30.8738 C   0  0  0  0  0  0  0  0  0  0  0  0
  -22.8392    0.8267  -30.1060 C   0  0  0  0  0  0  0  0  0  0  0  0
  -22.9466    4.1943  -34.3702 C   0  0  0  0  0  0  0  0  0  0  0  0
  -22.2919   -0.5046  -30.1864 C   0  0  0  0  0  0  0  0  0  0  0  0
  -22.2442    5.5255  -32.4980 C   0  0  0  0  0  0  0  0  0  0  0  0
  -21.2940    3.7497  -36.0989 C   0  0  0  0  0  0  0  0  0  0  0  0
  -21.0268   -2.8240  -30.8900 C   0  0  0  0  0  0  0  0  0  0  0  0
  -30.5424    1.7291  -33.7542 O   0  0  0  0  0  0  0  0  0  0  0  0
  -27.2144    4.3657  -30.4848 O   0  0  0  0  0  0  0  0  0  0  0  0
  -22.5171    3.3838  -35.4295 O   0  0  0  0  0  0  0  0  0  0  0  0
  -29.9400    0.3408  -35.4651 N   0  0  0  0  0  0  0  0  0  0  0  0
  -25.9273    5.1265  -32.2706 N   0  0  0  0  0  0  0  0  0  0  0  0
  -22.4323   -2.7621  -31.0394 N   0  0  0  0  0  0  0  0  0  0  0  0
  -21.9718    4.7302  -33.5988 N   0  0  0  0  0  0  0  0  0  0  0  0
  1  3  1  0
  1 26  2  0
  1 29  1  0
  2 29  1  0
  3  4  2  0
  3  5  1  0
  4  6  1  0
  5  7  2  0
  6 10  2  0
  7 10  1  0
  7 11  1  0
  8 30  1  0
  9 11  1  0
  9 27  2  0
  9 30  1  0
 10 12  1  0
 11 13  2  0
 12 15  2  0
 12 17  1  0
 13 17  1  0
 14 16  2  0
 14 18  1  0
 14 30  1  0
 15 19  1  0
 16 21  1  0
 17 20  2  0
 18 23  2  0
 19 22  2  0
 19 31  1  0
 20 22  1  0
 21 28  1  0
 21 32  2  0
 23 32  1  0
 24 28  1  0
 25 31  1  0
M  END
$$$$

     RDKit          3D

 29 32  0  0  0  0  0  0  0  0999 V2000
  -29.5149   -0.5632  -33.3609 C   0  0  0  0  0  0  0  0  0  0  0  0
  -29.5038    0.6174  -34.1017 C   0  0  0  0  0  0  0  0  0  0  0  0
  -28.2245    1.1556  -33.9818 C   0  0  0  0  0  0  0  0  0  0  0  0
  -27.4821    0.2795  -33.1726 C   0  0  0  0  0  0  0  0  0  0  0  0
  -26.3783    2.5859  -34.1982 C   0  0  0  0  0  0  0  0  0  0  0  0
  -26.1268    0.5524  -32.9647 C   0  0  0  0  0  0  0  0  0  0  0  0
  -25.8769    3.7966  -34.7778 C   0  0  0  0  0  0  0  0  0  0  0  0
  -25.5926    1.7059  -33.5170 C   0  0  0  0  0  0  0  0  0  0  0  0
  -25.6738    5.2122  -33.6012 C   0  0  0  0  0  0  0  0  0  0  0  0
  -25.1377    7.6696  -34.5389 C   0  0  0  0  0  0  0  0  0  0  0  0
  -24.6860    3.7835  -35.5432 C   0  0  0  0  0  0  0  0  0  0  0  0
  -24.8830    6.2892  -34.3222 C   0  0  0  0  0  0  0  0  0  0  0  0
  -24.0846    0.0979  -31.9203 C   0  0  0  0  0  0  0  0  0  0  0  0
  -24.1850    4.9974  -36.1189 C   0  0  0  0  0  0  0  0  0  0  0  0
  -23.3052   -2.0863  -31.2717 C   0  0  0  0  0  0  0  0  0  0  0  0
  -23.3601    7.2409  -35.6785 C   0  0  0  0  0  0  0  0  0  0  0  0
  -23.0316   -0.7374  -31.4840 C   0  0  0  0  0  0  0  0  0  0  0  0
  -22.2436   -2.9599  -31.0190 C   0  0  0  0  0  0  0  0  0  0  0  0
  -20.9494   -2.4478  -30.9605 C   0  0  0  0  0  0  0  0  0  0  0  0
  -20.7431   -1.0766  -31.1604 C   0  0  0  0  0  0  0  0  0  0  0  0
  -19.8183   -3.2847  -30.6732 C   0  0  0  0  0  0  0  0  0  0  0  0
  -18.5785   -2.7790  -30.3850 C   0  0  0  0  0  0  0  0  0  0  0  0
  -19.9803   -4.5820  -30.8854 O   0  0  0  0  0  0  0  0  0  0  0  0
  -28.2531   -0.7346  -32.7558 N   0  0  0  0  0  0  0  0  0  0  0  0
  -27.6619    2.2816  -34.4899 N   0  0  0  0  0  0  0  0  0  0  0  0
  -25.3223   -0.1499  -32.1345 N   0  0  0  0  0  0  0  0  0  0  0  0
  -24.3315    8.1541  -35.3609 N   0  0  0  0  0  0  0  0  0  0  0  0
  -23.8423    6.0454  -35.1489 N   0  0  0  0  0  0  0  0  0  0  0  0
  -21.7770   -0.2239  -31.3997 N   0  0  0  0  0  0  0  0  0  0  0  0
  1  2  1  0
  1 24  1  0
  2  3  1  0
  3  4  1  0
  3 25  1  0
  4  6  2  0
  4 24  1  0
  5  7  1  0
  5  8  1  0
  5 25  2  0
  6  8  1  0
  6 26  1  0
  7 11  2  3
  9 12  1  0
 10 12  1  0
 10 27  1  0
 11 14  1  0
 12 28  1  0
 13 17  2  3
 13 26  1  0
 14 28  1  0
 15 17  1  0
 15 18  2  0
 16 27  1  0
 16 28  1  0
 17 29  1  0
 18 19  1  0
 19 20  1  0
 19 21  1  0
 20 29  2  0
 21 22  2  0
 21 23  1  0
M  END
$$$$

     RDKit          3D

 23 26  0  0  0  0  0  0  0  0999 V2000
  -29.1740    1.5643  -34.8243 C   0  0  0  0  0  0  0  0  0  0  0  0
  -28.1541    2.4727  -34.0577 C   0  0  0  0  0  0  0  0  0  0  0  0
  -27.8325    3.9228  -34.5983 C   0  0  0  0  0  0  0  0  0  0  0  0
  -27.0818    0.2727  -33.1459 C   0  0  0  0  0  0  0  0  0  0  0  0
  -27.0962    3.8766  -35.9420 C   0  0  0  0  0  0  0  0  0  0  0  0
  -26.9815    4.6360  -33.5506 C   0  0  0  0  0  0  0  0  0  0  0  0
  -26.8289    1.7039  -33.6545 C   0  0  0  0  0  0  0  0  0  0  0  0
  -26.0476    2.4725  -32.5474 C   0  0  0  0  0  0  0  0  0  0  0  0
  -25.7107   -0.4220  -32.8242 C   0  0  0  0  0  0  0  0  0  0  0  0
  -25.7619    3.8756  -33.0883 C   0  0  0  0  0  0  0  0  0  0  0  0
  -24.9193    0.3433  -31.7341 C   0  0  0  0  0  0  0  0  0  0  0  0
  -24.6963    1.7648  -32.2208 C   0  0  0  0  0  0  0  0  0  0  0  0
  -23.6789   -1.7275  -31.1315 C   0  0  0  0  0  0  0  0  0  0  0  0
  -23.5545   -0.3283  -31.5078 C   0  0  0  0  0  0  0  0  0  0  0  0
  -23.7050    2.5668  -31.3989 C   0  0  0  0  0  0  0  0  0  0  0  0
  -22.5172   -2.5169  -30.8766 C   0  0  0  0  0  0  0  0  0  0  0  0
  -22.3479    0.3948  -31.2929 C   0  0  0  0  0  0  0  0  0  0  0  0
  -22.4499    1.8014  -30.9772 C   0  0  0  0  0  0  0  0  0  0  0  0
  -21.2196   -1.8469  -30.9429 C   0  0  0  0  0  0  0  0  0  0  0  0
  -21.1887   -0.3640  -30.8966 C   0  0  0  0  0  0  0  0  0  0  0  0
  -29.0005    4.6884  -34.8475 O   0  0  0  0  0  0  0  0  0  0  0  0
  -25.5587    0.2446  -30.4460 O   0  0  0  0  0  0  0  0  0  0  0  0
  -20.2495   -2.5608  -30.3476 O   0  0  0  0  0  0  0  0  0  0  0  0
  1  2  1  0
  2  3  1  0
  2  7  1  0
  3  5  1  0
  3  6  1  0
  3 21  1  0
  4  7  1  0
  4  9  1  0
  6 10  1  0
  7  8  1  0
  8 10  1  0
  8 12  1  0
  9 11  1  0
 11 12  1  0
 11 14  1  0
 11 22  1  0
 12 15  1  0
 13 14  1  0
 13 16  2  0
 14 17  1  0
 15 18  1  0
 16 19  1  0
 17 18  1  0
 17 20  2  0
 19 20  1  0
 19 23  1  0
M  END
$$$$

     RDKit          3D

 29 33  0  0  0  0  0  0  0  0999 V2000
  -30.9560   -3.3246  -36.4313 C   0  0  0  0  0  0  0  0  0  0  0  0
  -30.6473   -0.9019  -35.8175 C   0  0  0  0  0  0  0  0  0  0  0  0
  -29.7302   -0.1931  -34.8298 C   0  0  0  0  0  0  0  0  0  0  0  0
  -29.3688   -2.5098  -34.7397 C   0  0  0  0  0  0  0  0  0  0  0  0
  -29.0618   -1.2529  -34.1132 C   0  0  0  0  0  0  0  0  0  0  0  0
  -27.8670   -1.4184  -31.9185 C   0  0  0  0  0  0  0  0  0  0  0  0
  -26.0232   -0.4470  -32.5861 C   0  0  0  0  0  0  0  0  0  0  0  0
  -24.6970   -0.1166  -32.6118 C   0  0  0  0  0  0  0  0  0  0  0  0
  -24.1612   -0.5608  -31.4704 C   0  0  0  0  0  0  0  0  0  0  0  0
  -22.7592   -0.5787  -31.2067 C   0  0  0  0  0  0  0  0  0  0  0  0
  -22.4746    6.2447  -31.2043 C   0  0  0  0  0  0  0  0  0  0  0  0
  -22.4921    6.4818  -32.5571 C   0  0  0  0  0  0  0  0  0  0  0  0
  -22.3179   -3.0614  -31.0259 C   0  0  0  0  0  0  0  0  0  0  0  0
  -22.3381    1.9497  -31.0748 C   0  0  0  0  0  0  0  0  0  0  0  0
  -22.0080    0.5636  -31.1473 C   0  0  0  0  0  0  0  0  0  0  0  0
  -22.0480    5.0214  -30.7418 C   0  0  0  0  0  0  0  0  0  0  0  0
  -22.1269    5.4858  -33.4737 C   0  0  0  0  0  0  0  0  0  0  0  0
  -21.9464   -1.6642  -31.0748 C   0  0  0  0  0  0  0  0  0  0  0  0
  -21.6249    4.0468  -31.6115 C   0  0  0  0  0  0  0  0  0  0  0  0
  -21.5967    4.2712  -32.9818 C   0  0  0  0  0  0  0  0  0  0  0  0
  -20.7236    0.0948  -30.8706 C   0  0  0  0  0  0  0  0  0  0  0  0
  -23.5010    2.3777  -30.9561 O   0  0  0  0  0  0  0  0  0  0  0  0
  -30.4938   -2.3164  -35.5425 N   0  0  0  0  0  0  0  0  0  0  0  0
  -27.9708   -1.0473  -33.2270 N   0  0  0  0  0  0  0  0  0  0  0  0
  -26.8552   -0.4567  -33.6043 N   0  0  0  0  0  0  0  0  0  0  0  0
  -26.6374   -1.0316  -31.4639 N   0  0  0  0  0  0  0  0  0  0  0  0
  -25.2856   -1.2663  -31.1254 N   0  0  0  0  0  0  0  0  0  0  0  0
  -21.2464    2.8035  -31.1301 N   0  0  0  0  0  0  0  0  0  0  0  0
  -20.6973   -1.2433  -30.8320 N   0  0  0  0  0  0  0  0  0  0  0  0
  1 23  1  0
  2  3  1  0
  2 23  1  0
  3  5  1  0
  4  5  1  0
  4 23  1  0
  5 24  1  0
  6 24  1  0
  6 26  1  0
  7  8  1  0
  7 25  2  0
  7 26  1  0
  8  9  1  0
  9 10  1  0
  9 27  1  0
 10 15  1  0
 10 18  2  0
 11 12  2  0
 11 16  1  0
 12 17  1  0
 13 18  1  0
 14 15  1  0
 14 22  2  0
 14 28  1  0
 15 21  1  0
 16 19  2  0
 17 20  2  0
 18 29  1  0
 19 20  1  0
 19 28  1  0
 21 29  1  0
 24 25  1  0
 26 27  1  0
M  END
$$$$

     RDKit          3D

 39 43  0  0  0  0  0  0  0  0999 V2000
  -30.4756    2.5503  -33.7675 C   0  0  0  0  0  0  0  0  0  0  0  0
  -29.5724   -2.4326  -34.9871 C   0  0  0  0  0  0  0  0  0  0  0  0
  -28.9664    2.3382  -34.1489 C   0  0  0  0  0  0  0  0  0  0  0  0
  -28.4713   -1.3499  -33.2145 C   0  0  0  0  0  0  0  0  0  0  0  0
  -28.6064    4.7734  -33.8610 C   0  0  0  0  0  0  0  0  0  0  0  0
  -28.3918    1.0743  -33.5176 C   0  0  0  0  0  0  0  0  0  0  0  0
  -27.6559   -1.5236  -32.0314 C   0  0  0  0  0  0  0  0  0  0  0  0
  -27.2384    2.8246  -32.8786 C   0  0  0  0  0  0  0  0  0  0  0  0
  -27.0990    1.3279  -33.0137 C   0  0  0  0  0  0  0  0  0  0  0  0
  -26.3018   -0.9111  -32.0804 C   0  0  0  0  0  0  0  0  0  0  0  0
  -26.3269    3.3084  -31.9280 C   0  0  0  0  0  0  0  0  0  0  0  0
  -26.1822    0.5242  -32.2870 C   0  0  0  0  0  0  0  0  0  0  0  0
  -25.2331    2.7384  -31.4432 C   0  0  0  0  0  0  0  0  0  0  0  0
  -25.2817    4.0456  -35.7391 C   0  0  0  0  0  0  0  0  0  0  0  0
  -25.0649    1.2861  -31.5816 C   0  0  0  0  0  0  0  0  0  0  0  0
  -24.7317    4.9625  -34.6532 C   0  0  0  0  0  0  0  0  0  0  0  0
  -24.4524    6.3242  -35.0910 C   0  0  0  0  0  0  0  0  0  0  0  0
  -24.2257    3.6320  -30.9073 C   0  0  0  0  0  0  0  0  0  0  0  0
  -23.7406    5.0284  -31.4081 C   0  0  0  0  0  0  0  0  0  0  0  0
  -23.8433    7.1795  -34.1014 C   0  0  0  0  0  0  0  0  0  0  0  0
  -23.6415    4.2614  -33.8162 C   0  0  0  0  0  0  0  0  0  0  0  0
  -23.4124   -1.3732  -30.7604 C   0  0  0  0  0  0  0  0  0  0  0  0
  -23.0279    5.1415  -32.7392 C   0  0  0  0  0  0  0  0  0  0  0  0
  -22.7722   -0.0648  -30.9499 C   0  0  0  0  0  0  0  0  0  0  0  0
  -22.7460    6.5555  -33.2777 C   0  0  0  0  0  0  0  0  0  0  0  0
  -22.5707   -2.5106  -30.5479 C   0  0  0  0  0  0  0  0  0  0  0  0
  -21.2824    0.0591  -31.0294 C   0  0  0  0  0  0  0  0  0  0  0  0
  -21.1491   -2.3733  -30.5465 C   0  0  0  0  0  0  0  0  0  0  0  0
  -20.4985   -1.1439  -30.8276 C   0  0  0  0  0  0  0  0  0  0  0  0
  -20.1469   -3.4367  -30.3204 C   0  0  0  0  0  0  0  0  0  0  0  0
  -18.9970   -1.2796  -30.7418 C   0  0  0  0  0  0  0  0  0  0  0  0
  -18.7718   -2.7779  -30.5024 C   0  0  0  0  0  0  0  0  0  0  0  0
  -29.0774   -2.3293  -33.7292 O   0  0  0  0  0  0  0  0  0  0  0  0
  -28.8214    2.2613  -35.5822 O   0  0  0  0  0  0  0  0  0  0  0  0
  -28.1763    3.4163  -33.6513 O   0  0  0  0  0  0  0  0  0  0  0  0
  -24.5678    0.6736  -30.6204 O   0  0  0  0  0  0  0  0  0  0  0  0
  -23.1051    5.8737  -30.4204 O   0  0  0  0  0  0  0  0  0  0  0  0
  -29.0200   -0.1183  -33.6521 N   0  0  0  0  0  0  0  0  0  0  0  0
  -23.6069    0.9805  -31.4692 N   0  0  0  0  0  0  0  0  0  0  0  0
  1  3  1  0
  2 33  1  0
  3  6  1  0
  3 34  1  0
  4  7  1  0
  4 33  1  0
  4 38  1  0
  5 35  1  0
  6  9  1  0
  6 38  2  0
  7 10  1  0
  8  9  1  0
  8 11  1  0
  8 35  1  0
  9 12  1  0
 10 12  1  0
 11 13  1  0
 12 15  1  0
 13 15  1  0
 13 18  1  0
 14 16  1  0
 15 36  1  0
 16 17  1  0
 16 21  1  0
 17 20  1  0
 18 19  1  0
 19 23  1  0
 19 37  1  0
 20 25  1  0
 21 23  1  0
 22 24  2  0
 22 26  1  0
 23 25  1  0
 24 27  1  0
 24 39  1  0
 26 28  2  0
 27 29  2  0
 28 29  1  0
 28 30  1  0
 29 31  1  0
 30 32  1  0
 31 32  1  0
 36 39  1  0
M  END
$$$$

     RDKit          3D

 24 27  0  0  0  0  0  0  0  0999 V2000
  -28.6431   -1.0747  -32.8095 C   0  0  0  0  0  0  0  0  0  0  0  0
  -27.9928   -0.1368  -33.5945 C   0  0  0  0  0  0  0  0  0  0  0  0
  -27.9487   -1.7040  -31.7923 C   0  0  0  0  0  0  0  0  0  0  0  0
  -26.5956   -1.4699  -31.5969 C   0  0  0  0  0  0  0  0  0  0  0  0
  -26.6327    0.1692  -33.3706 C   0  0  0  0  0  0  0  0  0  0  0  0
  -26.6390    1.8481  -35.1163 C   0  0  0  0  0  0  0  0  0  0  0  0
  -25.9561   -0.5156  -32.3809 C   0  0  0  0  0  0  0  0  0  0  0  0
  -26.0244    2.7774  -35.8985 C   0  0  0  0  0  0  0  0  0  0  0  0
  -25.9512    1.1921  -34.1144 C   0  0  0  0  0  0  0  0  0  0  0  0
  -24.5842    1.4445  -33.9150 C   0  0  0  0  0  0  0  0  0  0  0  0
  -24.6660    2.9739  -35.7694 C   0  0  0  0  0  0  0  0  0  0  0  0
  -23.9763    0.7353  -32.8656 C   0  0  0  0  0  0  0  0  0  0  0  0
  -23.9443    2.3530  -34.7799 C   0  0  0  0  0  0  0  0  0  0  0  0
  -22.6371    0.8848  -32.4971 C   0  0  0  0  0  0  0  0  0  0  0  0
  -22.1839    0.0223  -31.4759 C   0  0  0  0  0  0  0  0  0  0  0  0
  -21.7248    1.7171  -33.1108 C   0  0  0  0  0  0  0  0  0  0  0  0
  -20.8709    0.0500  -31.0769 C   0  0  0  0  0  0  0  0  0  0  0  0
  -20.3946    1.7350  -32.6955 C   0  0  0  0  0  0  0  0  0  0  0  0
  -20.0037    0.9301  -31.6486 C   0  0  0  0  0  0  0  0  0  0  0  0
  -19.3301    2.7148  -33.1530 C   0  0  0  0  0  0  0  0  0  0  0  0
  -19.5255    2.4363  -33.3800 O   0  0  0  0  0  0  0  0  0  0  0  0
  -18.1275    2.3963  -32.8712 O   0  0  0  0  0  0  0  0  0  0  0  0
  -24.6256   -0.3204  -32.2142 N   0  0  0  0  0  0  0  0  0  0  0  0
  -24.2059    4.1601  -36.9763 Cl  0  0  0  0  0  0  0  0  0  0  0  0
  1  2  1  0
  1  3  1  0
  2  5  2  0
  3  4  2  0
  4  7  1  0
  5  7  1  0
  5  9  1  0
  6  8  2  0
  6  9  1  0
  7 23  2  0
  8 11  1  0
  9 10  2  0
 10 12  1  0
 10 13  1  0
 11 13  2  0
 11 24  1  0
 12 14  1  0
 12 23  1  0
 14 15  2  0
 14 16  1  0
 15 17  1  0
 16 18  2  0
 17 19  2  0
 18 19  1  0
 18 21  1  0
 20 21  1  0
 20 22  1  0
M  END
$$$$

     RDKit          3D

 47 50  0  0  0  0  0  0  0  0999 V2000
  -27.8332    2.9429  -36.9777 C   0  0  0  0  0  0  0  0  0  0  0  0
  -27.4633    4.2613  -36.2396 C   0  0  0  0  0  0  0  0  0  0  0  0
  -27.3519    1.1922  -32.2134 C   0  0  0  0  0  0  0  0  0  0  0  0
  -26.6682    3.9840  -34.8998 C   0  0  0  0  0  0  0  0  0  0  0  0
  -26.5544    5.7418  -31.4907 C   0  0  0  0  0  0  0  0  0  0  0  0
  -26.3915    4.6993  -30.3634 C   0  0  0  0  0  0  0  0  0  0  0  0
  -26.4270    5.2427  -34.0176 C   0  0  0  0  0  0  0  0  0  0  0  0
  -26.0799    0.8718  -32.1229 C   0  0  0  0  0  0  0  0  0  0  0  0
  -25.7614   -0.4206  -31.4278 C   0  0  0  0  0  0  0  0  0  0  0  0
  -25.5913    2.3460  -30.3788 C   0  0  0  0  0  0  0  0  0  0  0  0
  -25.7103    3.5101  -30.8655 C   0  0  0  0  0  0  0  0  0  0  0  0
  -25.4022    1.8285  -34.6143 C   0  0  0  0  0  0  0  0  0  0  0  0
  -25.4035    3.1313  -35.3165 C   0  0  0  0  0  0  0  0  0  0  0  0
  -25.4522    6.7702  -31.4556 C   0  0  0  0  0  0  0  0  0  0  0  0
  -25.1976    1.6391  -31.3301 C   0  0  0  0  0  0  0  0  0  0  0  0
  -24.9348    0.5953  -35.2323 C   0  0  0  0  0  0  0  0  0  0  0  0
  -24.4454   -0.1831  -30.7836 C   0  0  0  0  0  0  0  0  0  0  0  0
  -24.2034    1.2324  -30.5710 C   0  0  0  0  0  0  0  0  0  0  0  0
  -24.0399    6.3096  -31.1041 C   0  0  0  0  0  0  0  0  0  0  0  0
  -23.2816   -0.7622  -31.5381 C   0  0  0  0  0  0  0  0  0  0  0  0
  -23.0020    3.8951  -35.5516 C   0  0  0  0  0  0  0  0  0  0  0  0
  -22.9681    6.5947  -32.1650 C   0  0  0  0  0  0  0  0  0  0  0  0
  -22.6072    4.4823  -33.3807 C   0  0  0  0  0  0  0  0  0  0  0  0
  -22.4315   -1.4046  -30.5500 C   0  0  0  0  0  0  0  0  0  0  0  0
  -22.2092    5.3288  -32.4715 C   0  0  0  0  0  0  0  0  0  0  0  0
  -22.0199    3.7843  -34.4378 C   0  0  0  0  0  0  0  0  0  0  0  0
  -21.2580    4.9073  -31.5330 C   0  0  0  0  0  0  0  0  0  0  0  0
  -20.9602   -1.2031  -30.7450 C   0  0  0  0  0  0  0  0  0  0  0  0
  -20.5906    3.6978  -31.5807 C   0  0  0  0  0  0  0  0  0  0  0  0
  -19.9405   -1.5150  -29.6326 C   0  0  0  0  0  0  0  0  0  0  0  0
  -19.7992    0.7388  -30.0231 C   0  0  0  0  0  0  0  0  0  0  0  0
  -19.9224    3.2112  -30.4592 C   0  0  0  0  0  0  0  0  0  0  0  0
  -19.3547   -3.1313  -30.2183 C   0  0  0  0  0  0  0  0  0  0  0  0
  -19.1283    1.9828  -30.4492 C   0  0  0  0  0  0  0  0  0  0  0  0
  -18.8539   -0.3805  -29.8073 C   0  0  0  0  0  0  0  0  0  0  0  0
  -27.4976    3.1841  -34.1560 O   0  0  0  0  0  0  0  0  0  0  0  0
  -27.4999    4.3156  -29.8755 O   0  0  0  0  0  0  0  0  0  0  0  0
  -26.7684    4.9629  -37.2356 O   0  0  0  0  0  0  0  0  0  0  0  0
  -26.7526    4.9855  -32.6533 O   0  0  0  0  0  0  0  0  0  0  0  0
  -25.7415    7.8029  -30.3644 O   0  0  0  0  0  0  0  0  0  0  0  0
  -24.8003   -0.4386  -34.4563 O   0  0  0  0  0  0  0  0  0  0  0  0
  -24.3580    4.0423  -35.2864 O   0  0  0  0  0  0  0  0  0  0  0  0
  -23.5252    7.1396  -33.3131 O   0  0  0  0  0  0  0  0  0  0  0  0
  -23.0062   -2.3377  -29.9005 O   0  0  0  0  0  0  0  0  0  0  0  0
  -22.5154    4.6857  -36.4421 O   0  0  0  0  0  0  0  0  0  0  0  0
  -20.6723    0.1763  -31.0729 O   0  0  0  0  0  0  0  0  0  0  0  0
  -20.1394   -2.0753  -28.5028 N   0  0  0  0  0  0  0  0  0  0  0  0
  1  2  1  0
  2  4  1  0
  2 38  1  0
  3  8  1  0
  4  7  1  0
  4 13  1  0
  4 36  1  0
  5  6  1  0
  5 14  1  0
  5 39  1  0
  6 11  1  0
  6 37  1  0
  7 39  1  0
  8  9  1  0
  8 15  1  0
  9 17  1  0
 10 11  1  0
 10 15  1  0
 12 13  1  0
 12 16  2  3
 13 42  1  0
 14 19  1  0
 14 40  1  0
 15 18  1  0
 16 41  1  0
 17 18  1  0
 17 20  1  0
 19 22  1  0
 20 24  1  0
 21 26  1  0
 21 42  1  0
 21 45  1  0
 22 25  1  0
 22 43  1  0
 23 25  1  0
 23 26  1  0
 24 28  1  0
 24 44  2  0
 25 27  2  3
 27 29  1  0
 28 30  1  0
 28 46  1  0
 29 32  2  3
 30 33  1  0
 30 35  1  0
 30 47  1  0
 31 34  1  0
 31 35  1  0
 31 46  1  0
 32 34  1  0
M  END
$$$$

     RDKit          3D

 44 48  0  0  0  0  0  0  0  0999 V2000
  -31.8006    0.1057  -34.7885 C   0  0  0  0  0  0  0  0  0  0  0  0
  -31.8491    1.4861  -34.8757 C   0  0  0  0  0  0  0  0  0  0  0  0
  -31.2275    3.4959  -37.8973 C   0  0  0  0  0  0  0  0  0  0  0  0
  -31.0510    2.2384  -37.0652 C   0  0  0  0  0  0  0  0  0  0  0  0
  -31.1126    2.3015  -33.8644 C   0  0  0  0  0  0  0  0  0  0  0  0
  -30.7610   -0.4178  -33.8292 C   0  0  0  0  0  0  0  0  0  0  0  0
  -30.1808    4.7107  -39.7615 C   0  0  0  0  0  0  0  0  0  0  0  0
  -29.4763   -0.8647  -34.5056 C   0  0  0  0  0  0  0  0  0  0  0  0
  -28.6991   -1.8613  -33.7478 C   0  0  0  0  0  0  0  0  0  0  0  0
  -27.9689   -1.4164  -32.5222 C   0  0  0  0  0  0  0  0  0  0  0  0
  -26.3052    0.0960  -31.6420 C   0  0  0  0  0  0  0  0  0  0  0  0
  -25.0036   -0.3260  -32.2488 C   0  0  0  0  0  0  0  0  0  0  0  0
  -25.0356   -0.2214  -33.9379 C   0  0  0  0  0  0  0  0  0  0  0  0
  -24.1017    0.7045  -31.7686 C   0  0  0  0  0  0  0  0  0  0  0  0
  -22.8449    0.1908  -31.1778 C   0  0  0  0  0  0  0  0  0  0  0  0
  -22.4982    6.4961  -31.0746 C   0  0  0  0  0  0  0  0  0  0  0  0
  -22.5747    6.9183  -33.5446 C   0  0  0  0  0  0  0  0  0  0  0  0
  -22.3104    5.5288  -29.9744 C   0  0  0  0  0  0  0  0  0  0  0  0
  -22.4090    5.9970  -32.4290 C   0  0  0  0  0  0  0  0  0  0  0  0
  -21.9874    4.6509  -32.6650 C   0  0  0  0  0  0  0  0  0  0  0  0
  -22.2041    6.4497  -34.8607 C   0  0  0  0  0  0  0  0  0  0  0  0
  -21.9422    3.7208  -31.5773 C   0  0  0  0  0  0  0  0  0  0  0  0
  -21.7853    5.1354  -35.0974 C   0  0  0  0  0  0  0  0  0  0  0  0
  -21.6329    1.0171  -31.1020 C   0  0  0  0  0  0  0  0  0  0  0  0
  -21.5530    2.3101  -31.8763 C   0  0  0  0  0  0  0  0  0  0  0  0
  -21.6307    4.2318  -34.0119 C   0  0  0  0  0  0  0  0  0  0  0  0
  -21.2333   -2.9252  -30.7130 C   0  0  0  0  0  0  0  0  0  0  0  0
  -21.4442   -1.4654  -30.6693 C   0  0  0  0  0  0  0  0  0  0  0  0
  -21.1873    1.9811  -33.2949 C   0  0  0  0  0  0  0  0  0  0  0  0
  -21.0353    2.9297  -34.3174 C   0  0  0  0  0  0  0  0  0  0  0  0
  -20.5852   -0.2689  -31.0699 C   0  0  0  0  0  0  0  0  0  0  0  0
  -19.2435   -0.3856  -30.8616 C   0  0  0  0  0  0  0  0  0  0  0  0
  -19.0430   -2.7500  -29.8564 C   0  0  0  0  0  0  0  0  0  0  0  0
  -18.6107   -1.5260  -30.5714 C   0  0  0  0  0  0  0  0  0  0  0  0
  -32.0361    4.4008  -37.6059 O   0  0  0  0  0  0  0  0  0  0  0  0
  -31.9127   -0.6669  -35.8200 O   0  0  0  0  0  0  0  0  0  0  0  0
  -30.4047    3.6137  -38.9458 O   0  0  0  0  0  0  0  0  0  0  0  0
  -22.0409    4.1756  -30.2950 O   0  0  0  0  0  0  0  0  0  0  0  0
  -20.2160   -4.9066  -30.3892 O   0  0  0  0  0  0  0  0  0  0  0  0
  -32.1080    2.1330  -36.0977 N   0  0  0  0  0  0  0  0  0  0  0  0
  -27.4356   -0.1163  -32.5533 N   0  0  0  0  0  0  0  0  0  0  0  0
  -22.7626   -1.1142  -30.8383 N   0  0  0  0  0  0  0  0  0  0  0  0
  -19.9759   -3.4779  -30.6670 N   0  0  0  0  0  0  0  0  0  0  0  0
  -21.8751    7.3100  -35.7295 F   0  0  0  0  0  0  0  0  0  0  0  0
  1  2  1  0
  1  6  1  0
  1 36  1  0
  2  5  1  0
  2 40  1  0
  3  4  1  0
  3 35  2  0
  3 37  1  0
  4 40  1  0
  6  8  1  0
  7 37  1  0
  8  9  1  0
  9 10  1  0
 10 41  1  0
 11 12  1  0
 11 41  1  0
 12 13  1  0
 12 14  1  0
 14 15  1  0
 15 24  1  0
 15 42  1  0
 16 18  2  0
 16 19  1  0
 17 19  2  0
 17 21  1  0
 18 38  1  0
 19 20  1  0
 20 22  2  0
 20 26  1  0
 21 23  1  0
 21 44  1  0
 22 25  1  0
 22 38  1  0
 23 26  2  0
 24 25  1  0
 24 31  1  0
 25 29  2  0
 26 30  1  0
 27 28  1  0
 27 43  1  0
 28 31  1  0
 28 42  1  0
 29 30  1  0
 31 32  2  0
 32 34  1  0
 33 34  1  0
 33 43  1  0
 39 43  1  0
M  END
$$$$

     RDKit          3D

 51 51  0  0  0  0  0  0  0  0999 V2000
  -29.5900    3.0165  -33.5745 C   0  0  0  0  0  0  0  0  0  0  0  0
  -28.9634    7.7048  -34.1677 C   0  0  0  0  0  0  0  0  0  0  0  0
  -28.5861   -0.7246  -33.0633 C   0  0  0  0  0  0  0  0  0  0  0  0
  -28.2343    4.2363  -38.5813 C   0  0  0  0  0  0  0  0  0  0  0  0
  -28.1178    2.6799  -33.7442 C   0  0  0  0  0  0  0  0  0  0  0  0
  -27.8162    2.3909  -35.1885 C   0  0  0  0  0  0  0  0  0  0  0  0
  -27.5241    0.2833  -33.1075 C   0  0  0  0  0  0  0  0  0  0  0  0
  -27.4828    7.3872  -35.9828 C   0  0  0  0  0  0  0  0  0  0  0  0
  -27.5436    7.9608  -34.5459 C   0  0  0  0  0  0  0  0  0  0  0  0
  -27.1333    3.4499  -37.9974 C   0  0  0  0  0  0  0  0  0  0  0  0
  -27.0917    3.6760  -36.3138 C   0  0  0  0  0  0  0  0  0  0  0  0
  -26.4823    4.9168  -30.9523 C   0  0  0  0  0  0  0  0  0  0  0  0
  -26.4093    2.6426  -35.5402 C   0  0  0  0  0  0  0  0  0  0  0  0
  -26.1095   -0.0738  -33.1814 C   0  0  0  0  0  0  0  0  0  0  0  0
  -25.8723    3.5416  -38.8854 C   0  0  0  0  0  0  0  0  0  0  0  0
  -25.5412   -0.8134  -34.2235 C   0  0  0  0  0  0  0  0  0  0  0  0
  -25.4925    0.4357  -30.9390 C   0  0  0  0  0  0  0  0  0  0  0  0
  -25.4752    6.7095  -33.7209 C   0  0  0  0  0  0  0  0  0  0  0  0
  -25.2857    0.8404  -32.3663 C   0  0  0  0  0  0  0  0  0  0  0  0
  -24.8448    6.0980  -32.4523 C   0  0  0  0  0  0  0  0  0  0  0  0
  -24.5086    7.6555  -34.5008 C   0  0  0  0  0  0  0  0  0  0  0  0
  -24.4464    6.0665  -36.5139 C   0  0  0  0  0  0  0  0  0  0  0  0
  -23.8025    0.9542  -32.8015 C   0  0  0  0  0  0  0  0  0  0  0  0
  -23.7426    7.0991  -35.6430 C   0  0  0  0  0  0  0  0  0  0  0  0
  -23.4910    2.1717  -31.9288 C   0  0  0  0  0  0  0  0  0  0  0  0
  -23.2313    3.3591  -32.7046 C   0  0  0  0  0  0  0  0  0  0  0  0
  -23.3410    5.6985  -32.5281 C   0  0  0  0  0  0  0  0  0  0  0  0
  -22.9779    4.4925  -31.6313 C   0  0  0  0  0  0  0  0  0  0  0  0
  -22.6668    7.7375  -36.1280 C   0  0  0  0  0  0  0  0  0  0  0  0
  -22.6553    1.7414  -30.7735 C   0  0  0  0  0  0  0  0  0  0  0  0
  -22.2848   -2.4186  -30.5008 C   0  0  0  0  0  0  0  0  0  0  0  0
  -21.5192   -0.8224  -28.6378 C   0  0  0  0  0  0  0  0  0  0  0  0
  -21.6128    4.0140  -31.0205 C   0  0  0  0  0  0  0  0  0  0  0  0
  -21.4244    2.5433  -30.7682 C   0  0  0  0  0  0  0  0  0  0  0  0
  -21.1926   -1.4563  -30.0679 C   0  0  0  0  0  0  0  0  0  0  0  0
  -21.1797   -0.2705  -30.9806 C   0  0  0  0  0  0  0  0  0  0  0  0
  -20.2554    1.9059  -30.0773 C   0  0  0  0  0  0  0  0  0  0  0  0
  -19.8500   -2.1009  -29.9980 C   0  0  0  0  0  0  0  0  0  0  0  0
  -19.0782   -0.2927  -29.8523 C   0  0  0  0  0  0  0  0  0  0  0  0
  -19.0211    2.8191  -30.1921 C   0  0  0  0  0  0  0  0  0  0  0  0
  -27.8316    1.6393  -32.8287 O   0  0  0  0  0  0  0  0  0  0  0  0
  -26.7216    7.3250  -33.3915 O   0  0  0  0  0  0  0  0  0  0  0  0
  -26.0416    1.3880  -30.3112 O   0  0  0  0  0  0  0  0  0  0  0  0
  -25.7661    4.8871  -32.1447 O   0  0  0  0  0  0  0  0  0  0  0  0
  -25.5059    4.6206  -39.5172 O   0  0  0  0  0  0  0  0  0  0  0  0
  -25.2417   -0.7035  -30.5629 O   0  0  0  0  0  0  0  0  0  0  0  0
  -23.8098    3.6384  -33.8138 O   0  0  0  0  0  0  0  0  0  0  0  0
  -23.9102    5.5506  -37.5094 O   0  0  0  0  0  0  0  0  0  0  0  0
  -22.4431    0.3463  -30.7841 O   0  0  0  0  0  0  0  0  0  0  0  0
  -21.1851    4.7246  -29.7886 O   0  0  0  0  0  0  0  0  0  0  0  0
  -20.0022    0.5953  -30.6868 O   0  0  0  0  0  0  0  0  0  0  0  0
  1  5  1  0
  2  9  1  0
  3  7  1  0
  4 10  1  0
  5  6  1  0
  5 41  1  0
  6 13  1  0
  7 14  1  0
  7 41  1  0
  8  9  1  0
  9 42  1  0
 10 11  1  0
 10 15  1  0
 11 13  1  0
 12 44  1  0
 14 16  1  0
 14 19  1  0
 15 45  1  0
 17 19  1  0
 17 43  2  0
 17 46  1  0
 18 20  1  0
 18 21  1  0
 18 42  1  0
 19 23  1  0
 20 27  1  0
 20 44  1  0
 21 24  1  0
 22 24  1  0
 22 48  2  0
 23 25  1  0
 24 29  2  0
 25 26  1  0
 25 30  1  0
 26 28  1  0
 26 47  2  0
 27 28  1  0
 28 33  1  0
 30 34  1  0
 30 49  1  0
 31 35  1  0
 32 35  1  0
 33 34  1  0
 33 50  1  0
 34 37  1  0
 35 36  1  0
 35 38  1  0
 36 49  1  0
 37 40  1  0
 37 51  1  0
 39 51  1  0
M  END
$$$$

     RDKit          3D

 24 27  0  0  0  0  0  0  0  0999 V2000
  -28.7196    1.4853  -33.4119 C   0  0  0  0  0  0  0  0  0  0  0  0
  -28.6728   -0.8633  -32.8942 C   0  0  0  0  0  0  0  0  0  0  0  0
  -27.6856    0.9286  -34.3045 C   0  0  0  0  0  0  0  0  0  0  0  0
  -27.4577   -0.3197  -33.5072 C   0  0  0  0  0  0  0  0  0  0  0  0
  -25.8431   -0.9190  -31.6163 C   0  0  0  0  0  0  0  0  0  0  0  0
  -25.4694    3.1761  -31.8664 C   0  0  0  0  0  0  0  0  0  0  0  0
  -25.3604    4.5010  -31.5648 C   0  0  0  0  0  0  0  0  0  0  0  0
  -25.0798    0.2835  -33.3738 C   0  0  0  0  0  0  0  0  0  0  0  0
  -25.1436    1.5726  -33.8917 C   0  0  0  0  0  0  0  0  0  0  0  0
  -24.8672    2.6961  -33.0439 C   0  0  0  0  0  0  0  0  0  0  0  0
  -24.7039    5.3026  -32.4856 C   0  0  0  0  0  0  0  0  0  0  0  0
  -24.3721   -0.7445  -31.4369 C   0  0  0  0  0  0  0  0  0  0  0  0
  -24.1236    4.8057  -33.5155 C   0  0  0  0  0  0  0  0  0  0  0  0
  -23.8649    0.1990  -32.3459 C   0  0  0  0  0  0  0  0  0  0  0  0
  -23.4667   -1.3269  -30.5194 C   0  0  0  0  0  0  0  0  0  0  0  0
  -22.5609    0.6367  -32.3285 C   0  0  0  0  0  0  0  0  0  0  0  0
  -22.1349   -0.8917  -30.4571 C   0  0  0  0  0  0  0  0  0  0  0  0
  -21.6635    0.0837  -31.3848 C   0  0  0  0  0  0  0  0  0  0  0  0
  -30.0135    0.9684  -33.2982 O   0  0  0  0  0  0  0  0  0  0  0  0
  -26.5686   -1.5461  -30.9183 O   0  0  0  0  0  0  0  0  0  0  0  0
  -26.1991    2.3247  -31.0049 O   0  0  0  0  0  0  0  0  0  0  0  0
  -30.0076   -0.4758  -33.3391 N   0  0  0  0  0  0  0  0  0  0  0  0
  -26.2105   -0.2818  -32.7612 N   0  0  0  0  0  0  0  0  0  0  0  0
  -24.2177    3.5292  -33.8062 N   0  0  0  0  0  0  0  0  0  0  0  0
  1  3  1  0
  1 19  1  0
  2  4  1  0
  2 22  1  0
  3  4  1  0
  4 23  1  0
  5 12  1  0
  5 20  2  0
  5 23  1  0
  6  7  2  0
  6 10  1  0
  6 21  1  0
  7 11  1  0
  8  9  1  0
  8 14  1  0
  8 23  1  0
  9 10  1  0
 10 24  2  0
 11 13  2  0
 12 14  1  0
 12 15  1  0
 13 24  1  0
 14 16  2  0
 15 17  2  0
 16 18  1  0
 17 18  1  0
 19 22  1  0
M  END
$$$$

     RDKit          3D

 45 46  0  0  0  0  0  0  0  0999 V2000
  -30.4417   -2.6660  -35.8036 C   0  0  0  0  0  0  0  0  0  0  0  0
  -30.4483   -1.2443  -35.3563 C   0  0  0  0  0  0  0  0  0  0  0  0
  -29.2083   -0.9566  -34.4547 C   0  0  0  0  0  0  0  0  0  0  0  0
  -29.1677    0.4403  -33.8599 C   0  0  0  0  0  0  0  0  0  0  0  0
  -28.8365    1.4699  -34.8979 C   0  0  0  0  0  0  0  0  0  0  0  0
  -28.6977   -1.9554  -33.4390 C   0  0  0  0  0  0  0  0  0  0  0  0
  -27.9586   -1.4081  -32.2424 C   0  0  0  0  0  0  0  0  0  0  0  0
  -27.5669    2.1858  -34.5565 C   0  0  0  0  0  0  0  0  0  0  0  0
  -26.5525   -0.9418  -32.0683 C   0  0  0  0  0  0  0  0  0  0  0  0
  -26.4975    2.3392  -35.5407 C   0  0  0  0  0  0  0  0  0  0  0  0
  -25.8472    3.8692  -33.8149 C   0  0  0  0  0  0  0  0  0  0  0  0
  -25.6665   -0.7144  -33.1983 C   0  0  0  0  0  0  0  0  0  0  0  0
  -25.3986    3.1619  -35.0437 C   0  0  0  0  0  0  0  0  0  0  0  0
  -24.7151    4.4904  -33.0618 C   0  0  0  0  0  0  0  0  0  0  0  0
  -24.9319    5.6661  -32.3289 C   0  0  0  0  0  0  0  0  0  0  0  0
  -24.4470    0.1355  -32.9404 C   0  0  0  0  0  0  0  0  0  0  0  0
  -23.9606    3.8908  -36.8318 C   0  0  0  0  0  0  0  0  0  0  0  0
  -23.8949    6.2240  -31.5684 C   0  0  0  0  0  0  0  0  0  0  0  0
  -23.4371    3.8421  -32.9378 C   0  0  0  0  0  0  0  0  0  0  0  0
  -23.3011    5.1270  -37.4287 C   0  0  0  0  0  0  0  0  0  0  0  0
  -23.1619   -1.5166  -31.3591 C   0  0  0  0  0  0  0  0  0  0  0  0
  -22.6628    5.5614  -31.4536 C   0  0  0  0  0  0  0  0  0  0  0  0
  -22.2751   -2.6186  -30.8824 C   0  0  0  0  0  0  0  0  0  0  0  0
  -22.4328    4.3953  -32.1644 C   0  0  0  0  0  0  0  0  0  0  0  0
  -21.1645    3.6691  -31.9520 C   0  0  0  0  0  0  0  0  0  0  0  0
  -20.8275   -2.1621  -31.0894 C   0  0  0  0  0  0  0  0  0  0  0  0
  -20.8462   -0.7067  -30.8146 C   0  0  0  0  0  0  0  0  0  0  0  0
  -20.8907    3.0938  -34.2509 C   0  0  0  0  0  0  0  0  0  0  0  0
  -19.8753   -4.5368  -30.8841 C   0  0  0  0  0  0  0  0  0  0  0  0
  -19.7528   -3.0338  -30.4483 C   0  0  0  0  0  0  0  0  0  0  0  0
  -19.4985    1.0650  -31.5004 C   0  0  0  0  0  0  0  0  0  0  0  0
  -19.4024    2.0812  -32.6308 C   0  0  0  0  0  0  0  0  0  0  0  0
  -31.4759   -2.9479  -36.7827 O   0  0  0  0  0  0  0  0  0  0  0  0
  -29.5810    1.7782  -35.8204 O   0  0  0  0  0  0  0  0  0  0  0  0
  -26.6395    3.1849  -32.9744 O   0  0  0  0  0  0  0  0  0  0  0  0
  -25.9744   -1.1100  -30.8924 O   0  0  0  0  0  0  0  0  0  0  0  0
  -26.1895    6.2418  -32.2763 O   0  0  0  0  0  0  0  0  0  0  0  0
  -23.6962    2.7222  -37.2510 O   0  0  0  0  0  0  0  0  0  0  0  0
  -22.7595   -3.0489  -29.7028 O   0  0  0  0  0  0  0  0  0  0  0  0
  -21.3380   -0.2068  -29.6763 O   0  0  0  0  0  0  0  0  0  0  0  0
  -20.6558    0.2633  -31.7062 O   0  0  0  0  0  0  0  0  0  0  0  0
  -20.5866    3.7172  -30.8580 O   0  0  0  0  0  0  0  0  0  0  0  0
  -27.5147    2.5262  -33.3688 N   0  0  0  0  0  0  0  0  0  0  0  0
  -24.8398    4.1500  -35.9089 N   0  0  0  0  0  0  0  0  0  0  0  0
  -20.6062    2.8997  -32.9292 N   0  0  0  0  0  0  0  0  0  0  0  0
  1  2  1  0
  1 33  1  0
  2  3  1  0
  3  4  1  0
  3  6  1  0
  4  5  1  0
  5  8  1  0
  5 34  2  0
  6  7  1  0
  7  9  1  0
  8 10  1  0
  8 43  2  0
  9 12  1  0
  9 36  1  0
 10 13  1  0
 11 13  1  0
 11 14  1  0
 11 35  1  0
 12 16  1  0
 13 44  1  0
 14 15  2  0
 14 19  1  0
 15 18  1  0
 15 37  1  0
 17 20  1  0
 17 38  2  0
 17 44  1  0
 18 22  2  0
 19 24  2  0
 21 23  1  0
 22 24  1  0
 23 26  1  0
 23 39  1  0
 24 25  1  0
 25 42  2  0
 25 45  1  0
 26 27  1  0
 26 30  1  0
 27 40  2  0
 27 41  1  0
 28 45  1  0
 29 30  1  0
 31 32  1  0
 31 41  1  0
 32 45  1  0
 35 43  1  0
M  END
$$$$

     RDKit          3D

 30 32  0  0  0  0  0  0  0  0999 V2000
  -30.5313   -0.8722  -35.3455 C   0  0  0  0  0  0  0  0  0  0  0  0
  -30.1223    0.4101  -35.0075 C   0  0  0  0  0  0  0  0  0  0  0  0
  -29.8300   -1.9556  -34.8561 C   0  0  0  0  0  0  0  0  0  0  0  0
  -29.0031    0.6306  -34.2159 C   0  0  0  0  0  0  0  0  0  0  0  0
  -28.6951   -1.7653  -33.9969 C   0  0  0  0  0  0  0  0  0  0  0  0
  -28.3038   -0.4513  -33.6869 C   0  0  0  0  0  0  0  0  0  0  0  0
  -26.4307   -0.8633  -32.0529 C   0  0  0  0  0  0  0  0  0  0  0  0
  -24.9965   -0.4189  -31.9368 C   0  0  0  0  0  0  0  0  0  0  0  0
  -25.0742    6.7655  -33.3178 C   0  0  0  0  0  0  0  0  0  0  0  0
  -24.6679    7.4578  -34.7578 C   0  0  0  0  0  0  0  0  0  0  0  0
  -24.4481    0.6856  -32.6755 C   0  0  0  0  0  0  0  0  0  0  0  0
  -24.2155    7.3962  -33.6350 C   0  0  0  0  0  0  0  0  0  0  0  0
  -24.1235   -1.1954  -31.1241 C   0  0  0  0  0  0  0  0  0  0  0  0
  -24.1101    5.4145  -33.4605 C   0  0  0  0  0  0  0  0  0  0  0  0
  -24.1745    6.3106  -35.7372 C   0  0  0  0  0  0  0  0  0  0  0  0
  -23.7172    5.3036  -34.7903 C   0  0  0  0  0  0  0  0  0  0  0  0
  -23.2737    2.8293  -34.3622 C   0  0  0  0  0  0  0  0  0  0  0  0
  -23.1484    1.1562  -32.5661 C   0  0  0  0  0  0  0  0  0  0  0  0
  -22.9984    4.0563  -35.1293 C   0  0  0  0  0  0  0  0  0  0  0  0
  -22.7353   -0.8518  -31.1308 C   0  0  0  0  0  0  0  0  0  0  0  0
  -22.0652   -3.3023  -30.6534 C   0  0  0  0  0  0  0  0  0  0  0  0
  -21.7704   -1.8321  -30.4751 C   0  0  0  0  0  0  0  0  0  0  0  0
  -20.8827    0.7124  -31.5254 C   0  0  0  0  0  0  0  0  0  0  0  0
  -20.4254   -1.6789  -31.1714 C   0  0  0  0  0  0  0  0  0  0  0  0
  -26.9655   -1.7101  -31.3549 O   0  0  0  0  0  0  0  0  0  0  0  0
  -27.1478   -0.1533  -32.9485 N   0  0  0  0  0  0  0  0  0  0  0  0
  -23.3238    4.9544  -32.4426 N   0  0  0  0  0  0  0  0  0  0  0  0
  -22.6871    2.3558  -33.1745 N   0  0  0  0  0  0  0  0  0  0  0  0
  -22.2414    0.3325  -31.7726 N   0  0  0  0  0  0  0  0  0  0  0  0
  -30.2363   -3.1684  -35.2397 F   0  0  0  0  0  0  0  0  0  0  0  0
  1  2  2  0
  1  3  1  0
  2  4  1  0
  3  5  2  0
  3 30  1  0
  4  6  2  0
  5  6  1  0
  6 26  1  0
  7  8  1  0
  7 25  2  0
  7 26  1  0
  8 11  1  0
  8 13  2  0
  9 12  1  0
  9 14  1  0
 10 12  1  0
 10 15  1  0
 11 18  2  0
 13 20  1  0
 14 16  1  0
 14 27  1  0
 15 16  1  0
 16 19  1  0
 17 19  1  0
 17 28  2  3
 18 28  1  0
 18 29  1  0
 20 22  1  0
 20 29  1  0
 21 22  1  0
 22 24  1  0
 23 29  1  0
M  END
$$$$

     RDKit          3D

 31 33  0  0  0  0  0  0  0  0999 V2000
  -32.0387    0.2162  -34.3818 C   0  0  0  0  0  0  0  0  0  0  0  0
  -30.8244   -2.2719  -36.6244 C   0  0  0  0  0  0  0  0  0  0  0  0
  -30.8265   -1.2453  -35.5732 C   0  0  0  0  0  0  0  0  0  0  0  0
  -30.7550    0.0729  -33.6938 C   0  0  0  0  0  0  0  0  0  0  0  0
  -30.1353   -3.5173  -36.4694 C   0  0  0  0  0  0  0  0  0  0  0  0
  -30.0106   -0.8368  -34.4668 C   0  0  0  0  0  0  0  0  0  0  0  0
  -28.5683   -1.1565  -33.9512 C   0  0  0  0  0  0  0  0  0  0  0  0
  -27.9746    1.3158  -33.3080 C   0  0  0  0  0  0  0  0  0  0  0  0
  -27.8211   -0.0720  -33.1262 C   0  0  0  0  0  0  0  0  0  0  0  0
  -27.2583    2.2190  -32.5452 C   0  0  0  0  0  0  0  0  0  0  0  0
  -26.8608   -0.5323  -32.2349 C   0  0  0  0  0  0  0  0  0  0  0  0
  -26.2447    1.7978  -31.6640 C   0  0  0  0  0  0  0  0  0  0  0  0
  -26.0799    0.4005  -31.4762 C   0  0  0  0  0  0  0  0  0  0  0  0
  -24.5580    3.7051  -31.5621 C   0  0  0  0  0  0  0  0  0  0  0  0
  -23.7044   -0.0959  -31.0563 C   0  0  0  0  0  0  0  0  0  0  0  0
  -23.0323    3.2070  -29.3853 C   0  0  0  0  0  0  0  0  0  0  0  0
  -23.1626    3.5441  -30.7091 C   0  0  0  0  0  0  0  0  0  0  0  0
  -22.2380    3.4165  -31.7208 C   0  0  0  0  0  0  0  0  0  0  0  0
  -22.4092    4.7546  -35.1298 C   0  0  0  0  0  0  0  0  0  0  0  0
  -21.9265    3.9594  -33.9680 C   0  0  0  0  0  0  0  0  0  0  0  0
  -20.9850    2.9228  -31.6011 C   0  0  0  0  0  0  0  0  0  0  0  0
  -20.6865    3.3056  -33.9388 C   0  0  0  0  0  0  0  0  0  0  0  0
  -18.9010    2.2343  -32.5855 C   0  0  0  0  0  0  0  0  0  0  0  0
  -31.5829   -2.2288  -37.5940 O   0  0  0  0  0  0  0  0  0  0  0  0
  -25.1517   -0.1002  -30.6955 O   0  0  0  0  0  0  0  0  0  0  0  0
  -31.9960   -0.5592  -35.4765 N   0  0  0  0  0  0  0  0  0  0  0  0
  -25.6261    2.8234  -30.8744 N   0  0  0  0  0  0  0  0  0  0  0  0
  -22.6982    3.9583  -32.8910 N   0  0  0  0  0  0  0  0  0  0  0  0
  -20.2140    2.7884  -32.7763 N   0  0  0  0  0  0  0  0  0  0  0  0
  -18.9216    1.1006  -31.9480 F   0  0  0  0  0  0  0  0  0  0  0  0
  -17.8734    2.7148  -33.0776 F   0  0  0  0  0  0  0  0  0  0  0  0
  1  4  1  0
  1 26  1  0
  2  3  1  0
  2  5  1  0
  2 24  2  0
  3  6  2  0
  3 26  1  0
  4  6  1  0
  6  7  1  0
  7  9  1  0
  8  9  2  0
  8 10  1  0
  9 11  1  0
 10 12  2  0
 11 13  2  0
 12 13  1  0
 12 27  1  0
 13 25  1  0
 14 17  1  0
 14 27  1  0
 15 25  1  0
 16 17  2  0
 17 18  1  0
 18 21  2  0
 18 28  1  0
 19 20  1  0
 20 22  1  0
 20 28  2  0
 21 29  1  0
 22 29  1  0
 23 29  1  0
 23 30  1  0
 23 31  1  0
M  END
$$$$

     RDKit          3D

 32 36  0  0  0  0  0  0  0  0999 V2000
  -27.7280    0.5522  -33.5232 C   0  0  0  0  0  0  0  0  0  0  0  0
  -27.8908    1.5786  -34.3761 C   0  0  0  0  0  0  0  0  0  0  0  0
  -27.5302    5.1600  -34.5870 C   0  0  0  0  0  0  0  0  0  0  0  0
  -26.4623    0.3258  -32.9798 C   0  0  0  0  0  0  0  0  0  0  0  0
  -26.1130    3.2585  -34.9087 C   0  0  0  0  0  0  0  0  0  0  0  0
  -26.2056    4.7042  -34.9950 C   0  0  0  0  0  0  0  0  0  0  0  0
  -25.8358   -0.5839  -32.0999 C   0  0  0  0  0  0  0  0  0  0  0  0
  -25.7740    6.6314  -36.4749 C   0  0  0  0  0  0  0  0  0  0  0  0
  -25.4956    1.2055  -33.4942 C   0  0  0  0  0  0  0  0  0  0  0  0
  -24.4308   -0.2893  -32.1079 C   0  0  0  0  0  0  0  0  0  0  0  0
  -24.2130    0.7967  -32.9505 C   0  0  0  0  0  0  0  0  0  0  0  0
  -24.3756    4.6621  -36.6519 C   0  0  0  0  0  0  0  0  0  0  0  0
  -24.3163    7.1264  -36.1357 C   0  0  0  0  0  0  0  0  0  0  0  0
  -24.3299    7.2794  -34.4752 C   0  0  0  0  0  0  0  0  0  0  0  0
  -23.4636   -2.2721  -31.0470 C   0  0  0  0  0  0  0  0  0  0  0  0
  -23.2549   -0.9894  -31.5129 C   0  0  0  0  0  0  0  0  0  0  0  0
  -23.3734    5.8856  -36.5554 C   0  0  0  0  0  0  0  0  0  0  0  0
  -23.1705    1.6465  -33.3251 C   0  0  0  0  0  0  0  0  0  0  0  0
  -22.3997   -2.9788  -30.5399 C   0  0  0  0  0  0  0  0  0  0  0  0
  -21.9777   -0.3960  -31.4814 C   0  0  0  0  0  0  0  0  0  0  0  0
  -21.0874   -2.4385  -30.5503 C   0  0  0  0  0  0  0  0  0  0  0  0
  -20.8698   -1.1505  -31.0334 C   0  0  0  0  0  0  0  0  0  0  0  0
  -19.5343   -0.5847  -30.9599 C   0  0  0  0  0  0  0  0  0  0  0  0
  -18.7545   -2.7138  -30.0664 C   0  0  0  0  0  0  0  0  0  0  0  0
  -18.4676   -1.3928  -30.5250 C   0  0  0  0  0  0  0  0  0  0  0  0
  -26.4427   -1.4476  -31.4579 O   0  0  0  0  0  0  0  0  0  0  0  0
  -25.3016    4.7555  -34.1364 O   0  0  0  0  0  0  0  0  0  0  0  0
  -26.8643    2.3534  -34.6047 N   0  0  0  0  0  0  0  0  0  0  0  0
  -25.7820    5.1324  -36.3485 N   0  0  0  0  0  0  0  0  0  0  0  0
  -25.6026    2.2070  -34.2720 N   0  0  0  0  0  0  0  0  0  0  0  0
  -20.0534   -3.2274  -30.1013 N   0  0  0  0  0  0  0  0  0  0  0  0
  -28.6240   -0.4225  -33.2292 F   0  0  0  0  0  0  0  0  0  0  0  0
  1  2  2  0
  1  4  1  0
  1 32  1  0
  2 28  1  0
  3  6  1  0
  4  7  1  0
  4  9  2  0
  5  6  1  0
  5 28  1  0
  5 30  1  0
  6 27  1  0
  6 29  1  0
  7 10  1  0
  7 26  2  0
  8 13  1  0
  8 29  1  0
  9 11  1  0
  9 30  1  0
 10 11  2  0
 10 16  1  0
 11 18  1  0
 12 17  1  0
 12 29  1  0
 13 14  1  0
 13 17  1  0
 15 16  2  0
 15 19  1  0
 16 20  1  0
 19 21  2  0
 20 22  2  0
 21 22  1  0
 21 31  1  0
 22 23  1  0
 23 25  2  0
 24 25  1  0
 24 31  2  0
M  END
$$$$

     RDKit          3D

 25 28  0  0  0  0  0  0  0  0999 V2000
  -29.0446    3.2115  -33.1008 C   0  0  0  0  0  0  0  0  0  0  0  0
  -27.8069    3.2650  -34.1108 C   0  0  0  0  0  0  0  0  0  0  0  0
  -27.4270    1.8180  -34.2087 C   0  0  0  0  0  0  0  0  0  0  0  0
  -26.7467    1.3948  -32.8935 C   0  0  0  0  0  0  0  0  0  0  0  0
  -26.6637    4.1488  -33.6496 C   0  0  0  0  0  0  0  0  0  0  0  0
  -26.4638    5.2176  -34.6307 C   0  0  0  0  0  0  0  0  0  0  0  0
  -26.4147   -0.1002  -32.8839 C   0  0  0  0  0  0  0  0  0  0  0  0
  -25.7608    2.7581  -31.0195 C   0  0  0  0  0  0  0  0  0  0  0  0
  -25.6484   -0.5218  -31.6516 C   0  0  0  0  0  0  0  0  0  0  0  0
  -25.4813    2.2370  -32.4713 C   0  0  0  0  0  0  0  0  0  0  0  0
  -25.3131    3.4529  -33.4311 C   0  0  0  0  0  0  0  0  0  0  0  0
  -24.3256    0.2895  -31.3934 C   0  0  0  0  0  0  0  0  0  0  0  0
  -24.1819    1.4056  -32.4682 C   0  0  0  0  0  0  0  0  0  0  0  0
  -23.0813   -1.8244  -30.6794 C   0  0  0  0  0  0  0  0  0  0  0  0
  -23.0852   -0.4974  -31.1769 C   0  0  0  0  0  0  0  0  0  0  0  0
  -22.9492    2.3044  -32.1592 C   0  0  0  0  0  0  0  0  0  0  0  0
  -21.8373   -2.4976  -30.5045 C   0  0  0  0  0  0  0  0  0  0  0  0
  -21.8302    0.2128  -31.3367 C   0  0  0  0  0  0  0  0  0  0  0  0
  -21.7295    1.5824  -31.7021 C   0  0  0  0  0  0  0  0  0  0  0  0
  -20.6245   -1.8384  -30.8500 C   0  0  0  0  0  0  0  0  0  0  0  0
  -20.6539   -0.4383  -30.9539 C   0  0  0  0  0  0  0  0  0  0  0  0
  -26.5254    4.8779  -35.9008 O   0  0  0  0  0  0  0  0  0  0  0  0
  -25.9815    6.3885  -34.2351 O   0  0  0  0  0  0  0  0  0  0  0  0
  -21.5785   -3.5961  -29.8096 O   0  0  0  0  0  0  0  0  0  0  0  0
  -19.4850   -2.4738  -30.7739 O   0  0  0  0  0  0  0  0  0  0  0  0
  1  2  1  0
  2  3  1  0
  2  5  1  0
  3  4  1  0
  4  7  1  0
  4 10  1  0
  5  6  1  0
  5 11  1  0
  6 22  2  0
  6 23  1  0
  7  9  1  0
  8 10  1  0
  9 12  1  0
 10 11  1  0
 10 13  1  0
 12 13  1  0
 12 15  1  0
 13 16  1  0
 14 15  1  0
 14 17  2  0
 15 18  1  0
 16 19  1  0
 17 20  1  0
 17 24  1  0
 18 19  2  0
 18 21  1  0
 20 21  1  0
 20 25  1  0
M  END
$$$$

     RDKit          3D

 58 61  0  0  0  0  0  0  0  0999 V2000
  -31.1179    0.3935  -36.2931 C   0  0  0  0  0  0  0  0  0  0  0  0
  -30.9529    1.1485  -33.9790 C   0  0  0  0  0  0  0  0  0  0  0  0
  -30.4805   -1.9653  -35.4694 C   0  0  0  0  0  0  0  0  0  0  0  0
  -29.8776   -0.9686  -34.4902 C   0  0  0  0  0  0  0  0  0  0  0  0
  -29.6340    4.0230  -38.5630 C   0  0  0  0  0  0  0  0  0  0  0  0
  -29.3450    4.1842  -32.6748 C   0  0  0  0  0  0  0  0  0  0  0  0
  -28.7782   -1.6333  -33.6326 C   0  0  0  0  0  0  0  0  0  0  0  0
  -28.7752    4.6750  -33.9106 C   0  0  0  0  0  0  0  0  0  0  0  0
  -28.6961    3.2733  -37.4466 C   0  0  0  0  0  0  0  0  0  0  0  0
  -28.5824    4.3103  -36.3432 C   0  0  0  0  0  0  0  0  0  0  0  0
  -28.3278    3.7039  -34.9811 C   0  0  0  0  0  0  0  0  0  0  0  0
  -27.8409   -0.6296  -33.3673 C   0  0  0  0  0  0  0  0  0  0  0  0
  -26.6757   -0.7948  -32.5867 C   0  0  0  0  0  0  0  0  0  0  0  0
  -26.5317    3.6735  -34.9621 C   0  0  0  0  0  0  0  0  0  0  0  0
  -25.4748   -0.8118  -33.4744 C   0  0  0  0  0  0  0  0  0  0  0  0
  -25.4779    0.3427  -34.3798 C   0  0  0  0  0  0  0  0  0  0  0  0
  -25.2049    2.0929  -30.3781 C   0  0  0  0  0  0  0  0  0  0  0  0
  -25.1027    2.5880  -33.2150 C   0  0  0  0  0  0  0  0  0  0  0  0
  -25.0466    3.2778  -34.5730 C   0  0  0  0  0  0  0  0  0  0  0  0
  -24.8781    5.8216  -34.4002 C   0  0  0  0  0  0  0  0  0  0  0  0
  -24.5013    3.5619  -32.2433 C   0  0  0  0  0  0  0  0  0  0  0  0
  -24.1974   -0.8015  -32.6166 C   0  0  0  0  0  0  0  0  0  0  0  0
  -24.0959   -1.4152  -31.2249 C   0  0  0  0  0  0  0  0  0  0  0  0
  -24.0274    2.7565  -31.0434 C   0  0  0  0  0  0  0  0  0  0  0  0
  -24.1530    4.5167  -34.4088 C   0  0  0  0  0  0  0  0  0  0  0  0
  -23.4014    4.2658  -33.0999 C   0  0  0  0  0  0  0  0  0  0  0  0
  -22.9506    1.8060  -31.4614 C   0  0  0  0  0  0  0  0  0  0  0  0
  -22.6931   -1.6347  -31.0505 C   0  0  0  0  0  0  0  0  0  0  0  0
  -22.4885    0.9837  -30.2933 C   0  0  0  0  0  0  0  0  0  0  0  0
  -22.3071   -2.8783  -30.4520 C   0  0  0  0  0  0  0  0  0  0  0  0
  -22.2704    3.3001  -33.3538 C   0  0  0  0  0  0  0  0  0  0  0  0
  -21.8206    2.5854  -32.1110 C   0  0  0  0  0  0  0  0  0  0  0  0
  -21.5731    3.2756  -34.5938 C   0  0  0  0  0  0  0  0  0  0  0  0
  -21.2842    3.7245  -31.2109 C   0  0  0  0  0  0  0  0  0  0  0  0
  -20.9979   -3.4349  -30.8660 C   0  0  0  0  0  0  0  0  0  0  0  0
  -21.1991    0.1504  -30.5851 C   0  0  0  0  0  0  0  0  0  0  0  0
  -20.4906   -4.7419  -30.5402 C   0  0  0  0  0  0  0  0  0  0  0  0
  -20.6850   -0.4173  -29.2321 C   0  0  0  0  0  0  0  0  0  0  0  0
  -20.1821    1.1397  -31.1674 C   0  0  0  0  0  0  0  0  0  0  0  0
  -19.2068   -0.8786  -29.2567 C   0  0  0  0  0  0  0  0  0  0  0  0
  -18.7986    0.5297  -31.3438 C   0  0  0  0  0  0  0  0  0  0  0  0
  -18.2489   -0.0103  -30.0514 C   0  0  0  0  0  0  0  0  0  0  0  0
  -31.8202    0.9556  -35.1399 O   0  0  0  0  0  0  0  0  0  0  0  0
  -30.7828   -0.2680  -33.5879 O   0  0  0  0  0  0  0  0  0  0  0  0
  -29.7510    5.0758  -36.3074 O   0  0  0  0  0  0  0  0  0  0  0  0
  -28.7461    2.4114  -34.8033 O   0  0  0  0  0  0  0  0  0  0  0  0
  -27.6741    5.5253  -33.5224 O   0  0  0  0  0  0  0  0  0  0  0  0
  -26.7436   -1.3533  -31.4732 O   0  0  0  0  0  0  0  0  0  0  0  0
  -26.2814    5.1401  -35.2306 O   0  0  0  0  0  0  0  0  0  0  0  0
  -25.4420    6.1885  -33.2721 O   0  0  0  0  0  0  0  0  0  0  0  0
  -23.7948    6.7698  -34.5775 O   0  0  0  0  0  0  0  0  0  0  0  0
  -22.9741   -3.4411  -29.5745 O   0  0  0  0  0  0  0  0  0  0  0  0
  -21.9420    3.6378  -35.6695 O   0  0  0  0  0  0  0  0  0  0  0  0
  -21.6266   -0.8519  -31.5053 O   0  0  0  0  0  0  0  0  0  0  0  0
  -21.4517   -0.9759  -28.3268 O   0  0  0  0  0  0  0  0  0  0  0  0
  -20.7156    1.6941  -32.3712 O   0  0  0  0  0  0  0  0  0  0  0  0
  -20.3323    2.8503  -34.5669 O   0  0  0  0  0  0  0  0  0  0  0  0
  -18.8920   -1.8008  -28.4853 O   0  0  0  0  0  0  0  0  0  0  0  0
  1 43  1  0
  2 43  1  0
  2 44  1  0
  3  4  1  0
  4  7  1  0
  4 44  1  0
  5  9  1  0
  6  8  1  0
  7 12  1  0
  8 11  1  0
  8 47  1  0
  9 10  1  0
 10 11  1  0
 10 45  1  0
 11 14  1  0
 11 46  1  0
 12 13  1  0
 13 15  1  0
 13 48  2  0
 14 19  1  0
 14 49  1  0
 15 16  1  0
 15 22  1  0
 17 24  1  0
 18 19  1  0
 18 21  1  0
 19 25  1  0
 20 25  1  0
 20 50  1  0
 20 51  1  0
 21 24  1  0
 21 26  1  0
 22 23  1  0
 23 28  1  0
 24 27  1  0
 25 26  1  0
 26 31  1  0
 27 29  1  0
 27 32  1  0
 28 30  1  0
 28 54  1  0
 29 36  1  0
 30 35  1  0
 30 52  2  0
 31 32  1  0
 31 33  1  0
 32 34  1  0
 32 56  1  0
 33 53  2  0
 33 57  1  0
 35 37  1  0
 36 38  1  0
 36 39  1  0
 36 54  1  0
 38 40  1  0
 38 55  1  0
 39 41  1  0
 39 56  1  0
 40 42  1  0
 40 58  2  0
 41 42  1  0
M  END
$$$$

     RDKit          3D

 60 65  0  0  0  0  0  0  0  0999 V2000
  -29.4016    3.3788  -33.2147 C   0  0  0  0  0  0  0  0  0  0  0  0
  -29.0806   -0.8712  -33.7301 C   0  0  0  0  0  0  0  0  0  0  0  0
  -28.9621    4.4282  -38.0682 C   0  0  0  0  0  0  0  0  0  0  0  0
  -27.8954    3.3745  -33.5159 C   0  0  0  0  0  0  0  0  0  0  0  0
  -27.9246    4.2236  -36.8369 C   0  0  0  0  0  0  0  0  0  0  0  0
  -27.6325    0.9760  -34.0266 C   0  0  0  0  0  0  0  0  0  0  0  0
  -27.5503    3.6135  -34.9364 C   0  0  0  0  0  0  0  0  0  0  0  0
  -27.0759    4.2564  -32.5748 C   0  0  0  0  0  0  0  0  0  0  0  0
  -26.8560    3.5329  -37.6591 C   0  0  0  0  0  0  0  0  0  0  0  0
  -26.6946   -0.2275  -33.4773 C   0  0  0  0  0  0  0  0  0  0  0  0
  -26.4106    5.7582  -37.4075 C   0  0  0  0  0  0  0  0  0  0  0  0
  -25.7273    4.8897  -32.6955 C   0  0  0  0  0  0  0  0  0  0  0  0
  -25.6773    4.4599  -37.9925 C   0  0  0  0  0  0  0  0  0  0  0  0
  -25.3375    0.2018  -32.9077 C   0  0  0  0  0  0  0  0  0  0  0  0
  -25.2485    5.5182  -31.3971 C   0  0  0  0  0  0  0  0  0  0  0  0
  -24.9928   -0.2520  -31.5364 C   0  0  0  0  0  0  0  0  0  0  0  0
  -24.5740    0.5985  -35.2047 C   0  0  0  0  0  0  0  0  0  0  0  0
  -24.4537    4.1338  -37.2422 C   0  0  0  0  0  0  0  0  0  0  0  0
  -24.6408    4.0712  -33.2830 C   0  0  0  0  0  0  0  0  0  0  0  0
  -24.5253    7.9011  -31.0537 C   0  0  0  0  0  0  0  0  0  0  0  0
  -24.2856    0.6340  -33.8255 C   0  0  0  0  0  0  0  0  0  0  0  0
  -24.0762    3.6880  -34.0471 C   0  0  0  0  0  0  0  0  0  0  0  0
  -24.0894    6.4392  -31.5250 C   0  0  0  0  0  0  0  0  0  0  0  0
  -23.8363    0.2412  -30.7738 C   0  0  0  0  0  0  0  0  0  0  0  0
  -23.8593    1.6085  -30.2396 C   0  0  0  0  0  0  0  0  0  0  0  0
  -23.7323    5.0787  -36.3935 C   0  0  0  0  0  0  0  0  0  0  0  0
  -22.8009    2.0363  -29.4333 C   0  0  0  0  0  0  0  0  0  0  0  0
  -22.8539    6.1082  -30.8130 C   0  0  0  0  0  0  0  0  0  0  0  0
  -22.5731   -1.9358  -30.8773 C   0  0  0  0  0  0  0  0  0  0  0  0
  -22.6802   -0.5412  -30.5024 C   0  0  0  0  0  0  0  0  0  0  0  0
  -22.5678    2.8786  -36.7804 C   0  0  0  0  0  0  0  0  0  0  0  0
  -22.6279    3.7781  -34.3844 C   0  0  0  0  0  0  0  0  0  0  0  0
  -22.5954    4.2308  -35.8583 C   0  0  0  0  0  0  0  0  0  0  0  0
  -21.8873    4.7257  -33.5617 C   0  0  0  0  0  0  0  0  0  0  0  0
  -21.4879   -0.0150  -29.8968 C   0  0  0  0  0  0  0  0  0  0  0  0
  -21.5518    1.2970  -29.3511 C   0  0  0  0  0  0  0  0  0  0  0  0
  -21.6448    5.8827  -31.5599 C   0  0  0  0  0  0  0  0  0  0  0  0
  -21.3658    3.4162  -37.9061 C   0  0  0  0  0  0  0  0  0  0  0  0
  -21.4510    4.6266  -32.2094 C   0  0  0  0  0  0  0  0  0  0  0  0
  -20.8625    3.5014  -31.5333 C   0  0  0  0  0  0  0  0  0  0  0  0
  -20.4018    2.0227  -28.9708 C   0  0  0  0  0  0  0  0  0  0  0  0
  -19.5221    2.6662  -29.6607 C   0  0  0  0  0  0  0  0  0  0  0  0
  -28.8405    0.4445  -34.2964 O   0  0  0  0  0  0  0  0  0  0  0  0
  -28.4757    3.4090  -35.8714 O   0  0  0  0  0  0  0  0  0  0  0  0
  -27.4876   -0.9387  -32.6216 O   0  0  0  0  0  0  0  0  0  0  0  0
  -27.4932    2.0319  -33.2022 O   0  0  0  0  0  0  0  0  0  0  0  0
  -27.5446    3.3836  -38.8757 O   0  0  0  0  0  0  0  0  0  0  0  0
  -27.5199    4.0978  -31.3057 O   0  0  0  0  0  0  0  0  0  0  0  0
  -27.5380    5.4559  -36.3953 O   0  0  0  0  0  0  0  0  0  0  0  0
  -25.7294   -1.1060  -30.9885 O   0  0  0  0  0  0  0  0  0  0  0  0
  -25.1714    4.2361  -39.3030 O   0  0  0  0  0  0  0  0  0  0  0  0
  -24.7192    2.4809  -30.5504 O   0  0  0  0  0  0  0  0  0  0  0  0
  -23.9462    2.9293  -37.4892 O   0  0  0  0  0  0  0  0  0  0  0  0
  -23.2801   -2.7885  -30.2861 O   0  0  0  0  0  0  0  0  0  0  0  0
  -22.9015    3.1974  -28.8906 O   0  0  0  0  0  0  0  0  0  0  0  0
  -21.5958   -2.2911  -31.5791 O   0  0  0  0  0  0  0  0  0  0  0  0
  -21.4365    5.1365  -36.1339 O   0  0  0  0  0  0  0  0  0  0  0  0
  -21.4430    6.9099  -32.4285 O   0  0  0  0  0  0  0  0  0  0  0  0
  -20.7955    2.3873  -32.1088 O   0  0  0  0  0  0  0  0  0  0  0  0
  -20.3485    3.6161  -30.3073 N   0  0  0  0  0  0  0  0  0  0  0  0
  1  4  1  0
  2 43  1  0
  3  5  1  0
  4  7  1  0
  4  8  1  0
  4 46  1  0
  5  9  1  0
  5 44  1  0
  5 49  1  0
  6 10  1  0
  6 43  1  0
  6 46  1  0
  7 44  1  0
  8 12  1  0
  8 48  1  0
  9 13  1  0
  9 47  1  0
 10 14  1  0
 10 45  1  0
 11 13  1  0
 11 49  1  0
 12 15  1  0
 12 19  1  0
 13 18  1  0
 13 51  1  0
 14 16  1  0
 14 21  1  0
 15 23  1  0
 16 24  1  0
 16 50  2  0
 17 21  1  0
 18 26  1  0
 18 53  1  0
 19 22  1  0
 20 23  1  0
 22 32  1  0
 23 28  1  0
 24 25  1  0
 24 30  2  0
 25 27  1  0
 25 52  2  0
 26 33  1  0
 27 36  1  0
 27 55  1  0
 28 37  1  0
 29 30  1  0
 29 54  2  0
 29 56  1  0
 30 35  1  0
 31 33  1  0
 31 38  1  0
 31 53  1  0
 32 33  1  0
 32 34  1  0
 33 57  1  0
 34 39  1  0
 35 36  2  0
 36 41  1  0
 37 39  1  0
 37 58  1  0
 39 40  1  0
 40 59  2  0
 40 60  1  0
 41 42  1  0
 42 60  1  0
M  END
$$$$

     RDKit          3D

 58 59  0  0  0  0  0  0  0  0999 V2000
  -31.7773   -1.1825  -35.8929 C   0  0  0  0  0  0  0  0  0  0  0  0
  -31.4444   -0.0629  -34.9855 C   0  0  0  0  0  0  0  0  0  0  0  0
  -31.0026   -3.1986  -37.0381 C   0  0  0  0  0  0  0  0  0  0  0  0
  -30.0301    0.4522  -35.1177 C   0  0  0  0  0  0  0  0  0  0  0  0
  -30.1920    2.9333  -34.8843 C   0  0  0  0  0  0  0  0  0  0  0  0
  -29.7905    1.6341  -34.1825 C   0  0  0  0  0  0  0  0  0  0  0  0
  -29.1790    3.0864  -35.9798 C   0  0  0  0  0  0  0  0  0  0  0  0
  -28.3468    1.7087  -33.7414 C   0  0  0  0  0  0  0  0  0  0  0  0
  -28.2343    6.1739  -35.0277 C   0  0  0  0  0  0  0  0  0  0  0  0
  -27.9968    4.9645  -35.9417 C   0  0  0  0  0  0  0  0  0  0  0  0
  -28.0981    6.0135  -33.5452 C   0  0  0  0  0  0  0  0  0  0  0  0
  -27.7538    0.5533  -32.9475 C   0  0  0  0  0  0  0  0  0  0  0  0
  -27.6152    4.6399  -31.6033 C   0  0  0  0  0  0  0  0  0  0  0  0
  -27.3713    7.3336  -35.5918 C   0  0  0  0  0  0  0  0  0  0  0  0
  -26.2419    0.6631  -32.9695 C   0  0  0  0  0  0  0  0  0  0  0  0
  -25.9606    2.0137  -30.7326 C   0  0  0  0  0  0  0  0  0  0  0  0
  -25.7547    5.9376  -31.5784 C   0  0  0  0  0  0  0  0  0  0  0  0
  -25.8810    7.1171  -35.4634 C   0  0  0  0  0  0  0  0  0  0  0  0
  -25.6730   -0.2832  -34.0318 C   0  0  0  0  0  0  0  0  0  0  0  0
  -25.6176    0.5876  -31.5918 C   0  0  0  0  0  0  0  0  0  0  0  0
  -24.6968    5.6478  -32.7025 C   0  0  0  0  0  0  0  0  0  0  0  0
  -24.2916    2.4984  -30.9760 C   0  0  0  0  0  0  0  0  0  0  0  0
  -24.4311    6.8156  -33.6085 C   0  0  0  0  0  0  0  0  0  0  0  0
  -24.1160    1.0212  -31.5911 C   0  0  0  0  0  0  0  0  0  0  0  0
  -23.4729    5.1130  -32.0126 C   0  0  0  0  0  0  0  0  0  0  0  0
  -23.2741   -1.2818  -31.4932 C   0  0  0  0  0  0  0  0  0  0  0  0
  -23.4157    0.0199  -30.7209 C   0  0  0  0  0  0  0  0  0  0  0  0
  -23.4382    3.6102  -31.9514 C   0  0  0  0  0  0  0  0  0  0  0  0
  -23.0177    6.9129  -34.0270 C   0  0  0  0  0  0  0  0  0  0  0  0
  -22.8095   -2.3062  -30.5442 C   0  0  0  0  0  0  0  0  0  0  0  0
  -22.6677    6.3067  -35.4291 C   0  0  0  0  0  0  0  0  0  0  0  0
  -22.4714    7.4919  -36.3189 C   0  0  0  0  0  0  0  0  0  0  0  0
  -21.7985   -3.2885  -31.0331 C   0  0  0  0  0  0  0  0  0  0  0  0
  -21.9351    3.2300  -31.9495 C   0  0  0  0  0  0  0  0  0  0  0  0
  -21.6384    1.7381  -31.8093 C   0  0  0  0  0  0  0  0  0  0  0  0
  -21.4267    3.7800  -33.2901 C   0  0  0  0  0  0  0  0  0  0  0  0
  -21.1404    7.6225  -36.8634 C   0  0  0  0  0  0  0  0  0  0  0  0
  -20.4472   -3.2851  -30.2768 C   0  0  0  0  0  0  0  0  0  0  0  0
  -20.0741    1.5747  -31.5738 C   0  0  0  0  0  0  0  0  0  0  0  0
  -19.9126   -4.6597  -30.5938 C   0  0  0  0  0  0  0  0  0  0  0  0
  -19.5102   -0.7973  -30.5326 C   0  0  0  0  0  0  0  0  0  0  0  0
  -19.5787    2.2513  -30.3554 C   0  0  0  0  0  0  0  0  0  0  0  0
  -19.3707   -2.3087  -30.8356 C   0  0  0  0  0  0  0  0  0  0  0  0
  -19.4483    6.5056  -38.2758 C   0  0  0  0  0  0  0  0  0  0  0  0
  -18.8278    5.1784  -38.2845 C   0  0  0  0  0  0  0  0  0  0  0  0
  -30.9238   -2.2862  -35.9648 O   0  0  0  0  0  0  0  0  0  0  0  0
  -29.5655    6.6349  -35.1757 O   0  0  0  0  0  0  0  0  0  0  0  0
  -29.2086    4.4144  -36.4854 O   0  0  0  0  0  0  0  0  0  0  0  0
  -28.7176    6.9612  -32.8679 O   0  0  0  0  0  0  0  0  0  0  0  0
  -27.8815    4.9223  -33.0087 O   0  0  0  0  0  0  0  0  0  0  0  0
  -25.4634    6.4050  -34.5997 O   0  0  0  0  0  0  0  0  0  0  0  0
  -25.4491    2.9538  -30.8657 O   0  0  0  0  0  0  0  0  0  0  0  0
  -24.6156    8.0023  -32.8585 O   0  0  0  0  0  0  0  0  0  0  0  0
  -21.4973    5.6741  -38.1322 O   0  0  0  0  0  0  0  0  0  0  0  0
  -20.6747    8.8264  -36.8346 O   0  0  0  0  0  0  0  0  0  0  0  0
  -20.0880   -0.4580  -29.4999 O   0  0  0  0  0  0  0  0  0  0  0  0
  -18.5054   -0.0725  -31.2253 O   0  0  0  0  0  0  0  0  0  0  0  0
  -20.7062    6.5951  -37.6415 N   0  0  0  0  0  0  0  0  0  0  0  0
  1  2  1  0
  1 46  1  0
  2  4  1  0
  3 46  1  0
  4  6  1  0
  5  6  1  0
  5  7  1  0
  6  8  1  0
  7 48  1  0
  8 12  1  0
  9 10  1  0
  9 11  1  0
  9 14  1  0
  9 47  1  0
 10 48  1  0
 11 49  2  0
 11 50  1  0
 12 15  1  0
 13 50  1  0
 14 18  1  0
 15 19  1  0
 15 20  1  0
 16 20  1  0
 16 52  1  0
 17 21  1  0
 18 51  1  0
 20 24  1  0
 21 23  1  0
 21 25  1  0
 22 24  1  0
 22 28  1  0
 22 52  1  0
 23 29  1  0
 23 51  1  0
 23 53  1  0
 24 27  1  0
 25 28  1  0
 26 27  1  0
 26 30  1  0
 28 34  1  0
 29 31  1  0
 30 33  1  0
 31 32  1  0
 32 37  1  0
 33 38  1  0
 34 35  1  0
 34 36  1  0
 35 39  1  0
 37 55  2  0
 37 58  1  0
 38 40  1  0
 38 43  1  0
 39 42  1  0
 41 43  1  0
 41 56  2  0
 41 57  1  0
 44 45  1  0
 44 58  1  0
 54 58  1  0
M  END
$$$$

     RDKit          3D

 45 47  0  0  0  0  0  0  0  0999 V2000
  -32.0186    3.9060  -33.6722 C   0  0  0  0  0  0  0  0  0  0  0  0
  -30.9222    3.5153  -34.5802 C   0  0  0  0  0  0  0  0  0  0  0  0
  -28.7433    2.8350  -36.4324 C   0  0  0  0  0  0  0  0  0  0  0  0
  -28.6661    3.7531  -35.3138 C   0  0  0  0  0  0  0  0  0  0  0  0
  -27.6593    2.6654  -32.9131 C   0  0  0  0  0  0  0  0  0  0  0  0
  -27.4100    4.1991  -33.2772 C   0  0  0  0  0  0  0  0  0  0  0  0
  -27.4088    4.3388  -34.7886 C   0  0  0  0  0  0  0  0  0  0  0  0
  -27.2162    5.7778  -35.3369 C   0  0  0  0  0  0  0  0  0  0  0  0
  -26.2661   -0.1745  -31.8746 C   0  0  0  0  0  0  0  0  0  0  0  0
  -26.0364    3.7392  -34.8682 C   0  0  0  0  0  0  0  0  0  0  0  0
  -25.8764    3.3522  -31.1077 C   0  0  0  0  0  0  0  0  0  0  0  0
  -25.9089    5.6490  -36.1392 C   0  0  0  0  0  0  0  0  0  0  0  0
  -25.6151    1.0772  -32.5560 C   0  0  0  0  0  0  0  0  0  0  0  0
  -25.3007    6.9356  -36.6467 C   0  0  0  0  0  0  0  0  0  0  0  0
  -25.0696    4.8791  -35.1166 C   0  0  0  0  0  0  0  0  0  0  0  0
  -24.3918    3.1357  -30.5774 C   0  0  0  0  0  0  0  0  0  0  0  0
  -24.1756    1.1195  -31.9602 C   0  0  0  0  0  0  0  0  0  0  0  0
  -23.7652    4.3049  -35.6462 C   0  0  0  0  0  0  0  0  0  0  0  0
  -23.6350    2.4614  -31.6961 C   0  0  0  0  0  0  0  0  0  0  0  0
  -22.3224    6.0344  -32.9111 C   0  0  0  0  0  0  0  0  0  0  0  0
  -22.0925    2.4635  -31.5106 C   0  0  0  0  0  0  0  0  0  0  0  0
  -21.7253    3.9815  -31.5037 C   0  0  0  0  0  0  0  0  0  0  0  0
  -21.8768    4.6336  -32.9019 C   0  0  0  0  0  0  0  0  0  0  0  0
  -21.5428   -1.5694  -29.8087 C   0  0  0  0  0  0  0  0  0  0  0  0
  -20.7977   -2.4936  -30.7674 C   0  0  0  0  0  0  0  0  0  0  0  0
  -20.5940   -0.2935  -29.1450 C   0  0  0  0  0  0  0  0  0  0  0  0
  -20.6125    0.8190  -30.2073 C   0  0  0  0  0  0  0  0  0  0  0  0
  -19.5253   -2.8274  -30.1495 C   0  0  0  0  0  0  0  0  0  0  0  0
  -19.3665    1.5724  -29.8084 C   0  0  0  0  0  0  0  0  0  0  0  0
  -19.0968   -0.6668  -29.1255 C   0  0  0  0  0  0  0  0  0  0  0  0
  -18.6323   -1.1907  -27.7813 C   0  0  0  0  0  0  0  0  0  0  0  0
  -27.8444    5.1010  -32.6268 O   0  0  0  0  0  0  0  0  0  0  0  0
  -26.4403    2.2264  -31.8760 O   0  0  0  0  0  0  0  0  0  0  0  0
  -26.0930    4.8709  -37.3202 O   0  0  0  0  0  0  0  0  0  0  0  0
  -25.6896   -0.4094  -30.6215 O   0  0  0  0  0  0  0  0  0  0  0  0
  -23.5200    0.3098  -32.8633 O   0  0  0  0  0  0  0  0  0  0  0  0
  -23.0788    5.1480  -36.3041 O   0  0  0  0  0  0  0  0  0  0  0  0
  -22.6850   -0.9721  -30.5673 O   0  0  0  0  0  0  0  0  0  0  0  0
  -21.7231    1.7798  -30.2165 O   0  0  0  0  0  0  0  0  0  0  0  0
  -20.4752    4.1871  -31.0417 O   0  0  0  0  0  0  0  0  0  0  0  0
  -19.7715    2.5091  -28.7642 O   0  0  0  0  0  0  0  0  0  0  0  0
  -19.6152   -1.6927  -26.9927 O   0  0  0  0  0  0  0  0  0  0  0  0
  -18.7000   -1.6350  -30.1146 O   0  0  0  0  0  0  0  0  0  0  0  0
  -18.3966    0.6011  -29.3789 O   0  0  0  0  0  0  0  0  0  0  0  0
  -29.8293    4.2746  -34.7293 N   0  0  0  0  0  0  0  0  0  0  0  0
  1  2  1  0
  2 45  2  3
  3  4  1  0
  4  7  1  0
  4 45  1  0
  5  6  1  0
  5 33  1  0
  6  7  1  0
  6 32  2  0
  7  8  1  0
  7 10  1  0
  8 12  1  0
  9 13  1  0
  9 35  1  0
 10 15  1  0
 11 16  1  0
 11 33  1  0
 12 14  1  0
 12 15  1  0
 12 34  1  0
 13 17  1  0
 15 18  1  0
 16 19  1  0
 17 19  1  0
 17 36  1  0
 18 37  1  0
 19 21  1  0
 20 23  1  0
 21 22  1  0
 21 39  1  0
 22 23  1  0
 22 40  1  0
 24 25  1  0
 24 26  1  0
 24 38  1  0
 25 28  1  0
 26 27  1  0
 26 30  1  0
 27 29  1  0
 27 39  1  0
 28 43  1  0
 29 41  1  0
 29 44  1  0
 30 31  1  0
 30 43  1  0
 30 44  1  0
 31 42  1  0
M  END
$$$$

     RDKit          3D

 51 57  0  0  0  0  0  0  0  0999 V2000
  -31.6068   -1.4601  -35.9070 C   0  0  0  0  0  0  0  0  0  0  0  0
  -31.5558   -0.3452  -35.1088 C   0  0  0  0  0  0  0  0  0  0  0  0
  -30.5923   -2.4312  -35.8413 C   0  0  0  0  0  0  0  0  0  0  0  0
  -30.4501   -0.1520  -34.2802 C   0  0  0  0  0  0  0  0  0  0  0  0
  -29.5148   -2.2187  -34.9726 C   0  0  0  0  0  0  0  0  0  0  0  0
  -29.3758   -1.0360  -34.2024 C   0  0  0  0  0  0  0  0  0  0  0  0
  -29.4043    7.1231  -29.5276 C   0  0  0  0  0  0  0  0  0  0  0  0
  -28.7602    7.3504  -30.8534 C   0  0  0  0  0  0  0  0  0  0  0  0
  -28.6664    6.4631  -28.5032 C   0  0  0  0  0  0  0  0  0  0  0  0
  -28.0024   -1.4178  -32.1648 C   0  0  0  0  0  0  0  0  0  0  0  0
  -27.4545    5.7899  -28.8608 C   0  0  0  0  0  0  0  0  0  0  0  0
  -27.5216    6.7816  -31.0838 C   0  0  0  0  0  0  0  0  0  0  0  0
  -27.3297    4.4256  -30.5976 C   0  0  0  0  0  0  0  0  0  0  0  0
  -26.7748   -0.4405  -33.8445 C   0  0  0  0  0  0  0  0  0  0  0  0
  -26.9447    5.9413  -30.1416 C   0  0  0  0  0  0  0  0  0  0  0  0
  -26.6665    6.8512  -32.3347 C   0  0  0  0  0  0  0  0  0  0  0  0
  -25.9509   -0.6936  -32.6311 C   0  0  0  0  0  0  0  0  0  0  0  0
  -25.5749    5.4687  -30.6526 C   0  0  0  0  0  0  0  0  0  0  0  0
  -24.6750    5.9433  -33.1414 C   0  0  0  0  0  0  0  0  0  0  0  0
  -23.8906   -1.0960  -31.4435 C   0  0  0  0  0  0  0  0  0  0  0  0
  -23.4612    3.1385  -30.2052 C   0  0  0  0  0  0  0  0  0  0  0  0
  -23.1955    3.9943  -32.7432 C   0  0  0  0  0  0  0  0  0  0  0  0
  -23.1913    5.5256  -32.9789 C   0  0  0  0  0  0  0  0  0  0  0  0
  -22.4634   -1.0464  -31.1322 C   0  0  0  0  0  0  0  0  0  0  0  0
  -22.6073    2.6891  -28.9587 C   0  0  0  0  0  0  0  0  0  0  0  0
  -22.6359    3.6398  -31.3539 C   0  0  0  0  0  0  0  0  0  0  0  0
  -22.4601    5.9959  -34.2547 C   0  0  0  0  0  0  0  0  0  0  0  0
  -22.4727    6.1220  -31.7646 C   0  0  0  0  0  0  0  0  0  0  0  0
  -22.2777    1.3193  -31.8769 C   0  0  0  0  0  0  0  0  0  0  0  0
  -22.3259    5.1283  -35.3662 C   0  0  0  0  0  0  0  0  0  0  0  0
  -22.0545    7.3244  -34.3759 C   0  0  0  0  0  0  0  0  0  0  0  0
  -21.8572   -2.1944  -30.6449 C   0  0  0  0  0  0  0  0  0  0  0  0
  -21.8935    3.8791  -29.1007 C   0  0  0  0  0  0  0  0  0  0  0  0
  -21.6724    0.1147  -31.3441 C   0  0  0  0  0  0  0  0  0  0  0  0
  -21.4943    2.5770  -31.6207 C   0  0  0  0  0  0  0  0  0  0  0  0
  -21.2004    4.9434  -29.9069 C   0  0  0  0  0  0  0  0  0  0  0  0
  -21.3181    6.8210  -36.6137 C   0  0  0  0  0  0  0  0  0  0  0  0
  -21.3961    7.7393  -35.5757 C   0  0  0  0  0  0  0  0  0  0  0  0
  -20.7197    7.1322  -37.9437 C   0  0  0  0  0  0  0  0  0  0  0  0
  -20.4697   -2.2417  -30.4794 C   0  0  0  0  0  0  0  0  0  0  0  0
  -20.2975    0.0872  -31.0563 C   0  0  0  0  0  0  0  0  0  0  0  0
  -19.7954   -3.5430  -30.1571 C   0  0  0  0  0  0  0  0  0  0  0  0
  -19.7032   -1.0679  -30.6167 C   0  0  0  0  0  0  0  0  0  0  0  0
  -22.6980    1.3132  -33.1004 O   0  0  0  0  0  0  0  0  0  0  0  0
  -22.4332    3.8999  -35.3560 O   0  0  0  0  0  0  0  0  0  0  0  0
  -28.1553   -0.8650  -33.3943 N   0  0  0  0  0  0  0  0  0  0  0  0
  -26.7120   -1.2363  -31.6612 N   0  0  0  0  0  0  0  0  0  0  0  0
  -25.4499    6.1930  -32.0638 N   0  0  0  0  0  0  0  0  0  0  0  0
  -24.5468   -0.5850  -32.4996 N   0  0  0  0  0  0  0  0  0  0  0  0
  -22.1105    4.8711  -31.0461 N   0  0  0  0  0  0  0  0  0  0  0  0
  -21.7609    5.5535  -36.4785 N   0  0  0  0  0  0  0  0  0  0  0  0
  1  2  2  0
  1  3  1  0
  2  4  1  0
  3  5  2  0
  4  6  2  0
  5  6  1  0
  6 46  1  0
  7  8  1  0
  7  9  1  0
  8 12  2  0
  9 11  2  0
 10 46  1  0
 10 47  1  0
 11 15  1  0
 12 15  1  0
 12 16  1  0
 13 15  1  0
 14 17  1  0
 14 46  1  0
 15 18  1  0
 16 48  1  0
 17 47  2  0
 17 49  1  0
 18 48  1  0
 19 23  1  0
 19 48  1  0
 20 24  1  0
 20 49  2  3
 21 25  1  0
 21 26  1  0
 22 23  1  0
 22 26  1  0
 23 27  1  0
 23 28  1  0
 24 32  2  0
 24 34  1  0
 25 33  1  0
 26 35  1  0
 26 50  1  0
 27 30  1  0
 27 31  1  0
 28 50  1  0
 29 34  1  0
 29 35  1  0
 29 44  1  0
 30 45  2  0
 30 51  1  0
 31 38  2  0
 32 40  1  0
 33 36  1  0
 34 41  1  0
 37 38  1  0
 37 39  1  0
 37 51  2  0
 40 42  1  0
 40 43  1  0
 41 43  2  0
M  END
$$$$

     RDKit          3D

 54 57  0  0  0  0  0  0  0  0999 V2000
  -31.0935    0.6486  -33.6597 C   0  0  0  0  0  0  0  0  0  0  0  0
  -30.5367   -2.0260  -36.6969 C   0  0  0  0  0  0  0  0  0  0  0  0
  -30.7124   -1.5760  -35.3025 C   0  0  0  0  0  0  0  0  0  0  0  0
  -29.4756   -1.0268  -34.6087 C   0  0  0  0  0  0  0  0  0  0  0  0
  -29.5073    0.4537  -34.3894 C   0  0  0  0  0  0  0  0  0  0  0  0
  -28.7079   -1.8825  -33.7090 C   0  0  0  0  0  0  0  0  0  0  0  0
  -28.5421    0.8820  -33.3267 C   0  0  0  0  0  0  0  0  0  0  0  0
  -28.3928    3.1640  -34.1373 C   0  0  0  0  0  0  0  0  0  0  0  0
  -27.5540    1.9563  -33.6412 C   0  0  0  0  0  0  0  0  0  0  0  0
  -26.8519    2.2370  -32.3346 C   0  0  0  0  0  0  0  0  0  0  0  0
  -26.5301    1.5871  -34.7234 C   0  0  0  0  0  0  0  0  0  0  0  0
  -26.0102    1.1025  -31.7981 C   0  0  0  0  0  0  0  0  0  0  0  0
  -26.0294    3.5068  -32.5397 C   0  0  0  0  0  0  0  0  0  0  0  0
  -25.9639    4.5853  -31.4672 C   0  0  0  0  0  0  0  0  0  0  0  0
  -25.7365   -1.2510  -31.7288 C   0  0  0  0  0  0  0  0  0  0  0  0
  -25.6519    1.5770  -30.4242 C   0  0  0  0  0  0  0  0  0  0  0  0
  -25.0482    5.6706  -32.1335 C   0  0  0  0  0  0  0  0  0  0  0  0
  -24.9296    1.4074  -34.7527 C   0  0  0  0  0  0  0  0  0  0  0  0
  -23.6449    1.7551  -35.1093 C   0  0  0  0  0  0  0  0  0  0  0  0
  -23.6344    6.0796  -36.4655 C   0  0  0  0  0  0  0  0  0  0  0  0
  -23.1627    1.5783  -36.5154 C   0  0  0  0  0  0  0  0  0  0  0  0
  -22.7343    4.4646  -31.6124 C   0  0  0  0  0  0  0  0  0  0  0  0
  -22.6680    3.1410  -32.2692 C   0  0  0  0  0  0  0  0  0  0  0  0
  -22.3757    1.9691  -34.2751 C   0  0  0  0  0  0  0  0  0  0  0  0
  -22.4134    4.5463  -30.2352 C   0  0  0  0  0  0  0  0  0  0  0  0
  -22.2715    6.0963  -35.9597 C   0  0  0  0  0  0  0  0  0  0  0  0
  -21.7756    2.1011  -31.6625 C   0  0  0  0  0  0  0  0  0  0  0  0
  -21.8242    3.4598  -29.5327 C   0  0  0  0  0  0  0  0  0  0  0  0
  -21.9426    4.5304  -34.0884 C   0  0  0  0  0  0  0  0  0  0  0  0
  -21.4740    2.2892  -30.2726 C   0  0  0  0  0  0  0  0  0  0  0  0
  -21.7047    4.8339  -35.4184 C   0  0  0  0  0  0  0  0  0  0  0  0
  -21.5389    8.2906  -36.7094 C   0  0  0  0  0  0  0  0  0  0  0  0
  -21.3753    6.8385  -36.8796 C   0  0  0  0  0  0  0  0  0  0  0  0
  -21.1502    1.0558  -28.1502 C   0  0  0  0  0  0  0  0  0  0  0  0
  -21.0830    2.3883  -27.4657 C   0  0  0  0  0  0  0  0  0  0  0  0
  -20.9023    1.1533  -29.5987 C   0  0  0  0  0  0  0  0  0  0  0  0
  -20.5552    1.5420  -25.6529 C   0  0  0  0  0  0  0  0  0  0  0  0
  -20.2771    0.0808  -27.5377 C   0  0  0  0  0  0  0  0  0  0  0  0
  -20.4107   -0.0017  -26.0305 C   0  0  0  0  0  0  0  0  0  0  0  0
  -20.1656   -1.2207  -28.2612 C   0  0  0  0  0  0  0  0  0  0  0  0
  -19.7349   -0.9712  -29.7782 C   0  0  0  0  0  0  0  0  0  0  0  0
  -19.1339   -2.1027  -27.5294 C   0  0  0  0  0  0  0  0  0  0  0  0
  -19.0362   -0.4582  -25.5191 C   0  0  0  0  0  0  0  0  0  0  0  0
  -18.7083   -1.7945  -26.0925 C   0  0  0  0  0  0  0  0  0  0  0  0
  -17.2890   -2.1450  -25.6174 C   0  0  0  0  0  0  0  0  0  0  0  0
  -26.5862   -0.0923  -31.8481 O   0  0  0  0  0  0  0  0  0  0  0  0
  -23.6581    5.5343  -31.9789 O   0  0  0  0  0  0  0  0  0  0  0  0
  -22.4763    3.2736  -33.6765 O   0  0  0  0  0  0  0  0  0  0  0  0
  -22.2439    0.7483  -31.9622 O   0  0  0  0  0  0  0  0  0  0  0  0
  -22.1435    3.2357  -28.1633 O   0  0  0  0  0  0  0  0  0  0  0  0
  -21.5398   -1.7282  -28.3869 O   0  0  0  0  0  0  0  0  0  0  0  0
  -21.1612    4.0166  -36.1969 O   0  0  0  0  0  0  0  0  0  0  0  0
  -19.8286    0.4744  -30.1772 O   0  0  0  0  0  0  0  0  0  0  0  0
  -31.4212   -2.5256  -37.4744 N   0  0  0  0  0  0  0  0  0  0  0  0
  1  5  1  0
  2  3  1  0
  2 54  2  0
  3  4  1  0
  4  5  1  0
  4  6  1  0
  5  7  1  0
  7  9  1  0
  8  9  1  0
  9 10  1  0
  9 11  1  0
 10 12  1  0
 10 13  1  0
 11 18  1  0
 12 16  1  0
 12 46  1  0
 13 14  1  0
 14 17  1  0
 15 46  1  0
 17 47  1  0
 18 19  1  0
 19 21  1  0
 19 24  1  0
 20 26  1  0
 22 23  1  0
 22 25  2  0
 22 47  1  0
 23 27  1  0
 23 48  1  0
 25 28  1  0
 26 31  1  0
 26 33  1  0
 27 30  1  0
 27 49  1  0
 28 30  1  0
 28 50  1  0
 29 31  1  0
 29 48  1  0
 30 36  1  0
 31 52  2  0
 32 33  1  0
 34 35  1  0
 34 36  1  0
 34 38  1  0
 35 50  1  0
 36 53  1  0
 37 39  1  0
 38 39  1  0
 38 40  1  0
 39 43  1  0
 40 41  1  0
 40 42  1  0
 40 51  1  0
 41 53  1  0
 42 44  1  0
 43 44  1  0
 44 45  1  0
M  END
$$$$

     RDKit          3D

 30 32  0  0  0  0  0  0  0  0999 V2000
  -31.5219   -0.5396  -35.2505 C   0  0  0  0  0  0  0  0  0  0  0  0
  -31.5776   -0.1727  -36.7482 C   0  0  0  0  0  0  0  0  0  0  0  0
  -29.4447    0.3513  -34.2712 C   0  0  0  0  0  0  0  0  0  0  0  0
  -28.2792   -1.0919  -32.4541 C   0  0  0  0  0  0  0  0  0  0  0  0
  -28.2554   -0.0640  -33.4672 C   0  0  0  0  0  0  0  0  0  0  0  0
  -24.9105   -0.1252  -32.1667 C   0  0  0  0  0  0  0  0  0  0  0  0
  -24.3009   -1.0939  -31.3800 C   0  0  0  0  0  0  0  0  0  0  0  0
  -24.2326    1.0496  -32.5329 C   0  0  0  0  0  0  0  0  0  0  0  0
  -22.8895   -0.9889  -31.1071 C   0  0  0  0  0  0  0  0  0  0  0  0
  -22.9005    1.2334  -32.1581 C   0  0  0  0  0  0  0  0  0  0  0  0
  -22.2529    3.1080  -33.7810 C   0  0  0  0  0  0  0  0  0  0  0  0
  -22.4120    5.5603  -33.1154 C   0  0  0  0  0  0  0  0  0  0  0  0
  -22.3744    6.9290  -33.4702 C   0  0  0  0  0  0  0  0  0  0  0  0
  -22.1727   -2.1547  -30.4403 C   0  0  0  0  0  0  0  0  0  0  0  0
  -22.1871    0.1860  -31.4943 C   0  0  0  0  0  0  0  0  0  0  0  0
  -22.1997    4.5794  -34.0843 C   0  0  0  0  0  0  0  0  0  0  0  0
  -21.9989    4.9972  -35.4387 C   0  0  0  0  0  0  0  0  0  0  0  0
  -21.9578    6.3597  -35.7693 C   0  0  0  0  0  0  0  0  0  0  0  0
  -22.1590    7.3082  -34.7917 C   0  0  0  0  0  0  0  0  0  0  0  0
  -29.7760    1.5714  -34.1191 O   0  0  0  0  0  0  0  0  0  0  0  0
  -22.2079    2.2622  -34.7273 O   0  0  0  0  0  0  0  0  0  0  0  0
  -30.1703   -0.6282  -34.7723 N   0  0  0  0  0  0  0  0  0  0  0  0
  -27.0359   -1.1359  -31.9176 N   0  0  0  0  0  0  0  0  0  0  0  0
  -27.0096    0.3684  -33.4434 N   0  0  0  0  0  0  0  0  0  0  0  0
  -26.2264   -0.2741  -32.5098 N   0  0  0  0  0  0  0  0  0  0  0  0
  -22.3307    2.5489  -32.4762 N   0  0  0  0  0  0  0  0  0  0  0  0
  -22.9732   -3.1186  -29.8225 F   0  0  0  0  0  0  0  0  0  0  0  0
  -21.5083   -1.7467  -29.3974 F   0  0  0  0  0  0  0  0  0  0  0  0
  -21.3202   -2.7333  -31.2628 F   0  0  0  0  0  0  0  0  0  0  0  0
  -20.4529    0.2641  -31.2600 Cl  0  0  0  0  0  0  0  0  0  0  0  0
  1  2  1  0
  1 22  1  0
  3  5  1  0
  3 20  2  0
  3 22  1  0
  4  5  1  0
  4 23  1  0
  5 24  1  0
  6  7  2  0
  6  8  1  0
  6 25  1  0
  7  9  1  0
  8 10  2  0
  9 14  1  0
  9 15  2  0
 10 15  1  0
 10 26  1  0
 11 16  1  0
 11 21  2  0
 11 26  1  0
 12 13  2  0
 12 16  1  0
 13 19  1  0
 14 27  1  0
 14 28  1  0
 14 29  1  0
 15 30  1  0
 16 17  2  0
 17 18  1  0
 18 19  2  0
 23 25  1  0
 24 25  1  0
M  END
$$$$

     RDKit          3D

 54 56  0  0  0  0  0  0  0  0999 V2000
  -29.4970   -0.7884  -34.4920 C   0  0  0  0  0  0  0  0  0  0  0  0
  -29.6536    0.7098  -34.1207 C   0  0  0  0  0  0  0  0  0  0  0  0
  -28.7010   -1.3899  -33.3487 C   0  0  0  0  0  0  0  0  0  0  0  0
  -28.3898    1.3997  -34.6641 C   0  0  0  0  0  0  0  0  0  0  0  0
  -28.3458    3.0650  -37.9161 C   0  0  0  0  0  0  0  0  0  0  0  0
  -27.9654    2.6211  -33.8587 C   0  0  0  0  0  0  0  0  0  0  0  0
  -28.1786    2.8308  -36.5147 C   0  0  0  0  0  0  0  0  0  0  0  0
  -27.7586    3.9596  -32.2114 C   0  0  0  0  0  0  0  0  0  0  0  0
  -27.7189    5.2709  -37.2747 C   0  0  0  0  0  0  0  0  0  0  0  0
  -27.2733    3.9059  -37.4557 C   0  0  0  0  0  0  0  0  0  0  0  0
  -26.8075    6.1317  -35.0786 C   0  0  0  0  0  0  0  0  0  0  0  0
  -26.7230    6.2057  -36.5961 C   0  0  0  0  0  0  0  0  0  0  0  0
  -26.4423    2.5674  -33.6312 C   0  0  0  0  0  0  0  0  0  0  0  0
  -26.4098    3.8899  -31.7640 C   0  0  0  0  0  0  0  0  0  0  0  0
  -25.5424    2.7775  -32.5298 C   0  0  0  0  0  0  0  0  0  0  0  0
  -25.3179    1.5847  -30.3824 C   0  0  0  0  0  0  0  0  0  0  0  0
  -25.3254    5.3856  -31.6838 C   0  0  0  0  0  0  0  0  0  0  0  0
  -25.0598   -0.6026  -31.7125 C   0  0  0  0  0  0  0  0  0  0  0  0
  -24.4677    0.7226  -31.3258 C   0  0  0  0  0  0  0  0  0  0  0  0
  -24.6595    6.3375  -33.8913 C   0  0  0  0  0  0  0  0  0  0  0  0
  -24.2645    6.3770  -32.4445 C   0  0  0  0  0  0  0  0  0  0  0  0
  -23.7729    5.5876  -34.8291 C   0  0  0  0  0  0  0  0  0  0  0  0
  -23.0790    1.0245  -31.3483 C   0  0  0  0  0  0  0  0  0  0  0  0
  -22.8110    5.9788  -32.1197 C   0  0  0  0  0  0  0  0  0  0  0  0
  -22.4667    5.0588  -34.3178 C   0  0  0  0  0  0  0  0  0  0  0  0
  -22.3623    4.7024  -32.8661 C   0  0  0  0  0  0  0  0  0  0  0  0
  -22.0445    2.6568  -28.7880 C   0  0  0  0  0  0  0  0  0  0  0  0
  -21.9302    0.0827  -31.6976 C   0  0  0  0  0  0  0  0  0  0  0  0
  -20.9255   -0.0334  -29.3751 C   0  0  0  0  0  0  0  0  0  0  0  0
  -20.7584    0.5858  -30.8261 C   0  0  0  0  0  0  0  0  0  0  0  0
  -20.9551    2.1923  -30.8539 C   0  0  0  0  0  0  0  0  0  0  0  0
  -20.8515    2.7878  -32.3023 C   0  0  0  0  0  0  0  0  0  0  0  0
  -20.4574   -3.8221  -30.4575 C   0  0  0  0  0  0  0  0  0  0  0  0
  -20.5203   -1.5599  -29.1770 C   0  0  0  0  0  0  0  0  0  0  0  0
  -20.4751    2.4189  -28.5871 C   0  0  0  0  0  0  0  0  0  0  0  0
  -19.9248    2.8460  -29.9062 C   0  0  0  0  0  0  0  0  0  0  0  0
  -19.6961    2.3217  -33.1643 C   0  0  0  0  0  0  0  0  0  0  0  0
  -19.1555   -1.8083  -28.4650 C   0  0  0  0  0  0  0  0  0  0  0  0
  -30.7749   -1.1799  -34.8269 O   0  0  0  0  0  0  0  0  0  0  0  0
  -28.9263    5.3714  -36.6127 O   0  0  0  0  0  0  0  0  0  0  0  0
  -28.6980    1.7901  -35.9652 O   0  0  0  0  0  0  0  0  0  0  0  0
  -25.9984    7.0176  -37.1883 O   0  0  0  0  0  0  0  0  0  0  0  0
  -25.8184    6.8980  -34.4062 O   0  0  0  0  0  0  0  0  0  0  0  0
  -25.4476    1.6599  -31.7516 O   0  0  0  0  0  0  0  0  0  0  0  0
  -25.2748    5.7176  -30.3894 O   0  0  0  0  0  0  0  0  0  0  0  0
  -25.1681    4.0920  -32.0064 O   0  0  0  0  0  0  0  0  0  0  0  0
  -24.9232   -0.6261  -33.1355 O   0  0  0  0  0  0  0  0  0  0  0  0
  -22.8441    5.6860  -30.7812 O   0  0  0  0  0  0  0  0  0  0  0  0
  -22.5822    3.6588  -34.9887 O   0  0  0  0  0  0  0  0  0  0  0  0
  -22.2389    2.4902  -30.3783 O   0  0  0  0  0  0  0  0  0  0  0  0
  -21.1068    4.2245  -32.3383 O   0  0  0  0  0  0  0  0  0  0  0  0
  -20.2350    0.8725  -28.3875 O   0  0  0  0  0  0  0  0  0  0  0  0
  -18.5513    2.3834  -30.1244 O   0  0  0  0  0  0  0  0  0  0  0  0
  -20.4317   -2.3261  -30.4617 N   0  0  0  0  0  0  0  0  0  0  0  0
  1  2  1  0
  1  3  1  0
  1 39  1  0
  2  4  1  0
  4  6  1  0
  4 41  1  0
  5  7  1  0
  5 10  1  0
  6 13  1  0
  7 41  1  0
  8 14  1  0
  9 10  1  0
  9 12  1  0
  9 40  1  0
 11 12  1  0
 11 43  1  0
 12 42  2  0
 13 15  1  0
 14 46  1  0
 15 44  1  0
 16 44  1  0
 17 21  1  0
 17 45  1  0
 17 46  1  0
 18 19  1  0
 18 47  1  0
 19 23  2  3
 20 21  1  0
 20 22  2  0
 20 43  1  0
 21 24  1  0
 22 25  1  0
 23 28  1  0
 24 26  1  0
 24 48  1  0
 25 26  1  0
 25 49  1  0
 26 51  1  0
 27 35  1  0
 27 50  1  0
 28 30  1  0
 29 30  1  0
 29 34  1  0
 29 52  1  0
 30 31  1  0
 31 32  1  0
 31 36  1  0
 31 50  1  0
 32 37  1  0
 32 51  1  0
 33 54  1  0
 34 38  1  0
 34 54  1  0
 35 36  1  0
 35 52  1  0
 36 53  1  0
M  END
$$$$

     RDKit          3D

 36 37  0  0  0  0  0  0  0  0999 V2000
  -30.3053    4.7169  -34.1500 C   0  0  0  0  0  0  0  0  0  0  0  0
  -29.0673    2.6711  -33.7866 C   0  0  0  0  0  0  0  0  0  0  0  0
  -28.9680    3.9415  -34.4974 C   0  0  0  0  0  0  0  0  0  0  0  0
  -28.8228    2.7391  -35.3896 C   0  0  0  0  0  0  0  0  0  0  0  0
  -27.7872    4.6933  -34.0685 C   0  0  0  0  0  0  0  0  0  0  0  0
  -26.4820    4.3285  -34.7167 C   0  0  0  0  0  0  0  0  0  0  0  0
  -26.2060    0.2554  -33.2284 C   0  0  0  0  0  0  0  0  0  0  0  0
  -25.7877   -0.0843  -31.8328 C   0  0  0  0  0  0  0  0  0  0  0  0
  -25.7322    4.8401  -31.9588 C   0  0  0  0  0  0  0  0  0  0  0  0
  -25.4519    5.4799  -34.4786 C   0  0  0  0  0  0  0  0  0  0  0  0
  -25.3093    5.9091  -33.0118 C   0  0  0  0  0  0  0  0  0  0  0  0
  -25.1812   -0.1814  -34.2563 C   0  0  0  0  0  0  0  0  0  0  0  0
  -25.0436    3.6080  -31.7965 C   0  0  0  0  0  0  0  0  0  0  0  0
  -24.5866    2.6592  -30.9917 C   0  0  0  0  0  0  0  0  0  0  0  0
  -24.4480    0.2281  -31.3400 C   0  0  0  0  0  0  0  0  0  0  0  0
  -24.0306    3.8645  -35.9526 C   0  0  0  0  0  0  0  0  0  0  0  0
  -24.0677    5.1077  -35.0585 C   0  0  0  0  0  0  0  0  0  0  0  0
  -23.8449    1.5670  -31.7251 C   0  0  0  0  0  0  0  0  0  0  0  0
  -23.5246    6.3419  -35.8449 C   0  0  0  0  0  0  0  0  0  0  0  0
  -23.3513   -1.8170  -31.1461 C   0  0  0  0  0  0  0  0  0  0  0  0
  -22.7381    3.1257  -35.6233 C   0  0  0  0  0  0  0  0  0  0  0  0
  -22.7911    7.2427  -34.6866 C   0  0  0  0  0  0  0  0  0  0  0  0
  -22.6214    1.7371  -36.2278 C   0  0  0  0  0  0  0  0  0  0  0  0
  -22.6044    3.2468  -34.1513 C   0  0  0  0  0  0  0  0  0  0  0  0
  -22.4264    1.6055  -31.3923 C   0  0  0  0  0  0  0  0  0  0  0  0
  -21.5196    2.5690  -31.9789 C   0  0  0  0  0  0  0  0  0  0  0  0
  -21.4421    2.6870  -33.4779 C   0  0  0  0  0  0  0  0  0  0  0  0
  -29.9441    1.6955  -33.6041 O   0  0  0  0  0  0  0  0  0  0  0  0
  -26.4579   -0.8843  -31.1158 O   0  0  0  0  0  0  0  0  0  0  0  0
  -26.1021    7.1260  -32.7321 O   0  0  0  0  0  0  0  0  0  0  0  0
  -24.7384    6.9589  -32.8494 O   0  0  0  0  0  0  0  0  0  0  0  0
  -24.5693    3.9302  -37.1745 O   0  0  0  0  0  0  0  0  0  0  0  0
  -23.1189    4.7105  -34.0198 O   0  0  0  0  0  0  0  0  0  0  0  0
  -22.2148    1.2264  -30.1296 O   0  0  0  0  0  0  0  0  0  0  0  0
  -20.2080    2.9531  -33.9338 O   0  0  0  0  0  0  0  0  0  0  0  0
  -23.5590   -0.5748  -30.7118 N   0  0  0  0  0  0  0  0  0  0  0  0
  1  3  1  0
  2  3  1  0
  2 28  1  0
  3  4  1  0
  3  5  1  0
  5  6  1  0
  6 10  1  0
  7  8  1  0
  7 12  1  0
  8 15  1  0
  8 29  2  0
  9 11  1  0
  9 13  1  0
 10 11  1  0
 10 17  1  0
 11 30  1  0
 11 31  1  0
 13 14  1  0
 14 18  1  0
 15 18  1  0
 15 36  1  0
 16 17  1  0
 16 21  1  0
 16 32  1  0
 17 19  1  0
 17 33  1  0
 18 25  1  0
 19 22  1  0
 20 36  2  0
 21 23  1  0
 21 24  1  0
 24 27  1  0
 24 33  1  0
 25 26  1  0
 25 34  1  0
 26 27  1  0
 27 35  1  0
M  END
$$$$

     RDKit          3D

 39 41  0  0  0  0  0  0  0  0999 V2000
  -28.5520    0.4587  -34.1158 C   0  0  0  0  0  0  0  0  0  0  0  0
  -28.0070    3.5192  -33.6677 C   0  0  0  0  0  0  0  0  0  0  0  0
  -27.8105   -0.2952  -33.0700 C   0  0  0  0  0  0  0  0  0  0  0  0
  -27.7845    3.9158  -34.9881 C   0  0  0  0  0  0  0  0  0  0  0  0
  -27.2367    3.2817  -31.2583 C   0  0  0  0  0  0  0  0  0  0  0  0
  -26.9853    3.7486  -32.6829 C   0  0  0  0  0  0  0  0  0  0  0  0
  -26.6396    4.5772  -35.3316 C   0  0  0  0  0  0  0  0  0  0  0  0
  -26.3525   -0.4933  -33.4539 C   0  0  0  0  0  0  0  0  0  0  0  0
  -26.2402    4.9602  -36.7352 C   0  0  0  0  0  0  0  0  0  0  0  0
  -25.8065    0.4675  -34.3883 C   0  0  0  0  0  0  0  0  0  0  0  0
  -25.8298    4.4027  -33.1029 C   0  0  0  0  0  0  0  0  0  0  0  0
  -25.5222   -0.6867  -32.2003 C   0  0  0  0  0  0  0  0  0  0  0  0
  -24.5546    4.6550  -32.3306 C   0  0  0  0  0  0  0  0  0  0  0  0
  -24.6625    4.7129  -38.3391 C   0  0  0  0  0  0  0  0  0  0  0  0
  -24.4440    5.1859  -30.9060 C   0  0  0  0  0  0  0  0  0  0  0  0
  -23.6254    3.4306  -32.3932 C   0  0  0  0  0  0  0  0  0  0  0  0
  -23.6274    4.1258  -30.0824 C   0  0  0  0  0  0  0  0  0  0  0  0
  -23.3627   -1.0056  -31.4384 C   0  0  0  0  0  0  0  0  0  0  0  0
  -22.8121    5.2315  -27.9860 C   0  0  0  0  0  0  0  0  0  0  0  0
  -22.5119    4.7835  -29.3462 C   0  0  0  0  0  0  0  0  0  0  0  0
  -22.3376    0.7959  -30.2431 C   0  0  0  0  0  0  0  0  0  0  0  0
  -22.2732    2.1793  -30.8937 C   0  0  0  0  0  0  0  0  0  0  0  0
  -22.0563   -0.3180  -31.2196 C   0  0  0  0  0  0  0  0  0  0  0  0
  -21.2273    2.2127  -29.9599 C   0  0  0  0  0  0  0  0  0  0  0  0
  -20.8741   -1.1387  -31.2333 C   0  0  0  0  0  0  0  0  0  0  0  0
  -20.0644   -2.1437  -30.7478 C   0  0  0  0  0  0  0  0  0  0  0  0
  -27.7134    4.2130  -30.5262 O   0  0  0  0  0  0  0  0  0  0  0  0
  -23.7728   -1.8386  -30.5924 O   0  0  0  0  0  0  0  0  0  0  0  0
  -23.4939    2.8035  -33.3579 O   0  0  0  0  0  0  0  0  0  0  0  0
  -22.1660    1.7774  -29.5624 O   0  0  0  0  0  0  0  0  0  0  0  0
  -27.0307    4.7693  -37.9150 N   0  0  0  0  0  0  0  0  0  0  0  0
  -25.7199    4.8367  -34.3578 N   0  0  0  0  0  0  0  0  0  0  0  0
  -25.7018    4.7878  -39.0289 N   0  0  0  0  0  0  0  0  0  0  0  0
  -24.9888    4.5643  -37.0927 N   0  0  0  0  0  0  0  0  0  0  0  0
  -24.2266   -0.4745  -32.3120 N   0  0  0  0  0  0  0  0  0  0  0  0
  -23.1600    3.1547  -31.1434 N   0  0  0  0  0  0  0  0  0  0  0  0
  -22.1035    1.1039  -31.7234 N   0  0  0  0  0  0  0  0  0  0  0  0
  -28.7255    3.5392  -35.9451 F   0  0  0  0  0  0  0  0  0  0  0  0
  -20.1813   -3.3639  -30.7559 F   0  0  0  0  0  0  0  0  0  0  0  0
  1  3  1  0
  2  4  2  0
  2  6  1  0
  3  8  1  0
  4  7  1  0
  4 38  1  0
  5  6  1  0
  5 27  1  0
  6 11  2  0
  7  9  1  0
  7 32  2  0
  8 10  1  0
  8 12  1  0
  9 31  1  0
  9 34  1  0
 11 13  1  0
 11 32  1  0
 12 35  1  0
 13 15  1  0
 13 16  1  0
 14 33  1  0
 14 34  1  0
 15 17  1  0
 16 29  2  0
 16 36  1  0
 17 20  1  0
 17 36  1  0
 18 23  1  0
 18 28  2  0
 18 35  1  0
 19 20  1  0
 21 23  1  0
 21 30  1  0
 22 24  1  0
 22 36  1  0
 22 37  2  0
 23 25  1  0
 23 37  1  0
 24 30  1  0
 25 26  1  0
 26 39  1  0
M  END
$$$$

     RDKit          3D

 24 27  0  0  0  0  0  0  0  0999 V2000
  -27.8743    3.9518  -33.9892 C   0  0  0  0  0  0  0  0  0  0  0  0
  -27.1912    3.2893  -36.1899 C   0  0  0  0  0  0  0  0  0  0  0  0
  -26.6924    4.1135  -34.9292 C   0  0  0  0  0  0  0  0  0  0  0  0
  -26.4837    5.5826  -35.3377 C   0  0  0  0  0  0  0  0  0  0  0  0
  -25.6537    2.5108  -33.2302 C   0  0  0  0  0  0  0  0  0  0  0  0
  -25.3651    3.5327  -34.3423 C   0  0  0  0  0  0  0  0  0  0  0  0
  -25.1196    1.2606  -30.5415 C   0  0  0  0  0  0  0  0  0  0  0  0
  -25.0766    5.7788  -35.8955 C   0  0  0  0  0  0  0  0  0  0  0  0
  -24.6560    0.6845  -31.8323 C   0  0  0  0  0  0  0  0  0  0  0  0
  -24.3368    1.7707  -32.8614 C   0  0  0  0  0  0  0  0  0  0  0  0
  -24.4082    4.5944  -33.7853 C   0  0  0  0  0  0  0  0  0  0  0  0
  -23.9698    3.5504  -30.9816 C   0  0  0  0  0  0  0  0  0  0  0  0
  -24.0168    5.6309  -34.8148 C   0  0  0  0  0  0  0  0  0  0  0  0
  -23.5496   -1.5192  -31.2537 C   0  0  0  0  0  0  0  0  0  0  0  0
  -23.4108   -0.1520  -31.5477 C   0  0  0  0  0  0  0  0  0  0  0  0
  -23.3160    2.8200  -32.1875 C   0  0  0  0  0  0  0  0  0  0  0  0
  -23.0642    3.9539  -33.1952 C   0  0  0  0  0  0  0  0  0  0  0  0
  -22.4128   -2.2798  -30.8956 C   0  0  0  0  0  0  0  0  0  0  0  0
  -22.1850    0.5076  -31.3745 C   0  0  0  0  0  0  0  0  0  0  0  0
  -22.0416    2.0419  -31.7596 C   0  0  0  0  0  0  0  0  0  0  0  0
  -21.1531   -1.6509  -30.7925 C   0  0  0  0  0  0  0  0  0  0  0  0
  -21.0536   -0.2512  -30.9989 C   0  0  0  0  0  0  0  0  0  0  0  0
  -23.8212    6.8796  -34.1309 O   0  0  0  0  0  0  0  0  0  0  0  0
  -20.0469   -2.3339  -30.4942 O   0  0  0  0  0  0  0  0  0  0  0  0
  1  3  1  0
  2  3  1  0
  3  4  1  0
  3  6  1  0
  4  8  1  0
  5  6  1  0
  5 10  1  0
  6 11  1  0
  7  9  1  0
  8 13  1  0
  9 10  1  0
  9 15  1  0
 10 16  1  0
 11 13  1  0
 11 17  1  0
 12 16  1  0
 13 23  1  0
 14 15  2  0
 14 18  1  0
 15 19  1  0
 16 17  1  0
 16 20  1  0
 18 21  2  0
 19 20  1  0
 19 22  2  0
 21 22  1  0
 21 24  1  0
M  END
$$$$

     RDKit          3D

 30 33  0  0  0  0  0  0  0  0999 V2000
  -30.9559   -1.1510  -35.9593 C   0  0  0  0  0  0  0  0  0  0  0  0
  -30.5249    1.1501  -35.5744 C   0  0  0  0  0  0  0  0  0  0  0  0
  -29.9937   -1.4956  -34.9960 C   0  0  0  0  0  0  0  0  0  0  0  0
  -29.5295    0.8029  -34.6445 C   0  0  0  0  0  0  0  0  0  0  0  0
  -29.2877   -0.5112  -34.3439 C   0  0  0  0  0  0  0  0  0  0  0  0
  -28.7878   -1.6345  -32.2807 C   0  0  0  0  0  0  0  0  0  0  0  0
  -28.2667   -1.9818  -31.2410 C   0  0  0  0  0  0  0  0  0  0  0  0
  -28.3101   -0.8363  -33.2907 C   0  0  0  0  0  0  0  0  0  0  0  0
  -27.0059   -0.3526  -33.1168 C   0  0  0  0  0  0  0  0  0  0  0  0
  -26.3386   -0.8012  -31.9467 C   0  0  0  0  0  0  0  0  0  0  0  0
  -25.3225    4.8676  -32.7420 C   0  0  0  0  0  0  0  0  0  0  0  0
  -25.2425    7.1878  -33.8559 C   0  0  0  0  0  0  0  0  0  0  0  0
  -24.9356   -0.5207  -31.5876 C   0  0  0  0  0  0  0  0  0  0  0  0
  -24.9125    3.6513  -31.8607 C   0  0  0  0  0  0  0  0  0  0  0  0
  -24.4887    0.7901  -31.8186 C   0  0  0  0  0  0  0  0  0  0  0  0
  -23.7165    5.9920  -32.3070 C   0  0  0  0  0  0  0  0  0  0  0  0
  -23.4049    3.6874  -31.5592 C   0  0  0  0  0  0  0  0  0  0  0  0
  -23.1595    1.1594  -31.5895 C   0  0  0  0  0  0  0  0  0  0  0  0
  -22.7193   -1.1360  -30.9157 C   0  0  0  0  0  0  0  0  0  0  0  0
  -22.9313    4.7644  -32.4734 C   0  0  0  0  0  0  0  0  0  0  0  0
  -22.2695    0.1640  -31.2058 C   0  0  0  0  0  0  0  0  0  0  0  0
  -22.4350    4.4374  -33.6539 C   0  0  0  0  0  0  0  0  0  0  0  0
  -21.7836   -3.4541  -30.8061 C   0  0  0  0  0  0  0  0  0  0  0  0
  -21.6429   -2.0569  -30.4457 C   0  0  0  0  0  0  0  0  0  0  0  0
  -20.9393   -1.5428  -29.3174 C   0  0  0  0  0  0  0  0  0  0  0  0
  -31.1812    0.1601  -36.2488 N   0  0  0  0  0  0  0  0  0  0  0  0
  -26.9862   -1.5678  -31.0904 N   0  0  0  0  0  0  0  0  0  0  0  0
  -24.9139    5.9134  -32.7511 N   0  0  0  0  0  0  0  0  0  0  0  0
  -24.0573   -1.4828  -31.1180 N   0  0  0  0  0  0  0  0  0  0  0  0
  -22.7190    2.4576  -31.6804 N   0  0  0  0  0  0  0  0  0  0  0  0
  1  3  2  0
  1 26  1  0
  2  4  1  0
  2 26  2  0
  3  5  1  0
  4  5  2  0
  5  8  1  0
  6  7  1  0
  6  8  2  0
  7 27  1  0
  8  9  1  0
  9 10  1  0
 10 13  1  0
 10 27  2  0
 11 14  1  0
 11 28  1  0
 12 28  1  0
 13 15  1  0
 13 29  2  0
 14 17  1  0
 15 18  1  0
 16 20  1  0
 16 28  1  0
 17 20  1  0
 17 30  1  0
 18 21  2  0
 18 30  1  0
 19 21  1  0
 19 24  1  0
 19 29  1  0
 20 22  2  0
 23 24  1  0
 24 25  1  0
M  END
$$$$

     RDKit          3D

 30 34  0  0  0  0  0  0  0  0999 V2000
  -29.7647    4.2482  -35.6947 C   0  0  0  0  0  0  0  0  0  0  0  0
  -28.6033    2.7205  -37.2403 C   0  0  0  0  0  0  0  0  0  0  0  0
  -28.3837    3.7552  -36.1565 C   0  0  0  0  0  0  0  0  0  0  0  0
  -27.8750    3.8527  -33.5656 C   0  0  0  0  0  0  0  0  0  0  0  0
  -27.4228    3.3479  -34.9945 C   0  0  0  0  0  0  0  0  0  0  0  0
  -27.1945    1.8231  -34.9792 C   0  0  0  0  0  0  0  0  0  0  0  0
  -26.4793    1.3237  -33.7555 C   0  0  0  0  0  0  0  0  0  0  0  0
  -26.2045    4.7577  -36.6092 C   0  0  0  0  0  0  0  0  0  0  0  0
  -26.1269    4.1109  -35.3230 C   0  0  0  0  0  0  0  0  0  0  0  0
  -24.9972    1.5698  -33.6194 C   0  0  0  0  0  0  0  0  0  0  0  0
  -24.9077   -0.5913  -32.1529 C   0  0  0  0  0  0  0  0  0  0  0  0
  -24.9371    1.6706  -30.9005 C   0  0  0  0  0  0  0  0  0  0  0  0
  -24.7752    3.8449  -34.8285 C   0  0  0  0  0  0  0  0  0  0  0  0
  -24.5576    0.8744  -32.3330 C   0  0  0  0  0  0  0  0  0  0  0  0
  -24.4725    3.0680  -33.5621 C   0  0  0  0  0  0  0  0  0  0  0  0
  -23.7335   -1.0812  -31.3308 C   0  0  0  0  0  0  0  0  0  0  0  0
  -23.0922    0.7876  -32.4415 C   0  0  0  0  0  0  0  0  0  0  0  0
  -22.9825    3.0898  -33.3515 C   0  0  0  0  0  0  0  0  0  0  0  0
  -22.6396   -0.2845  -31.6144 C   0  0  0  0  0  0  0  0  0  0  0  0
  -22.3498    1.9733  -32.6473 C   0  0  0  0  0  0  0  0  0  0  0  0
  -21.7182   -2.3756  -30.0735 C   0  0  0  0  0  0  0  0  0  0  0  0
  -21.3264   -0.3126  -31.2251 C   0  0  0  0  0  0  0  0  0  0  0  0
  -20.9930    1.9569  -32.2346 C   0  0  0  0  0  0  0  0  0  0  0  0
  -20.7946   -1.5654  -30.8040 C   0  0  0  0  0  0  0  0  0  0  0  0
  -20.5030    0.7949  -31.4363 C   0  0  0  0  0  0  0  0  0  0  0  0
  -19.3617   -1.5600  -30.4491 C   0  0  0  0  0  0  0  0  0  0  0  0
  -30.8287    3.7150  -36.3547 O   0  0  0  0  0  0  0  0  0  0  0  0
  -28.4951    1.2109  -34.9402 O   0  0  0  0  0  0  0  0  0  0  0  0
  -27.6836    4.8283  -36.8670 O   0  0  0  0  0  0  0  0  0  0  0  0
  -21.9033   -2.1547  -29.0092 O   0  0  0  0  0  0  0  0  0  0  0  0
  1  3  1  0
  1 27  1  0
  2  3  1  0
  3  5  1  0
  3 29  1  0
  4  5  1  0
  5  6  1  0
  5  9  1  0
  6  7  1  0
  6 28  1  0
  7 10  1  0
  8  9  1  0
  8 29  1  0
  9 13  1  0
 10 14  1  0
 10 15  1  0
 11 14  1  0
 11 16  1  0
 12 14  1  0
 13 15  1  0
 14 17  1  0
 15 18  1  0
 16 19  1  0
 17 19  1  0
 17 20  1  0
 18 20  1  0
 19 22  1  0
 20 23  2  0
 21 24  1  0
 21 30  2  0
 22 24  1  0
 22 25  2  0
 23 25  1  0
 24 26  1  0
M  END
$$$$

     RDKit          3D

 40 42  0  0  0  0  0  0  0  0999 V2000
  -30.7514    0.8487  -34.1965 C   0  0  0  0  0  0  0  0  0  0  0  0
  -30.8340    1.1548  -36.8410 C   0  0  0  0  0  0  0  0  0  0  0  0
  -30.7858    2.2725  -33.8103 C   0  0  0  0  0  0  0  0  0  0  0  0
  -30.5985   -0.2194  -33.1532 C   0  0  0  0  0  0  0  0  0  0  0  0
  -30.5380    0.4846  -35.5817 C   0  0  0  0  0  0  0  0  0  0  0  0
  -28.6330    2.7244  -34.0348 C   0  0  0  0  0  0  0  0  0  0  0  0
  -28.2454   -0.8437  -32.7737 C   0  0  0  0  0  0  0  0  0  0  0  0
  -27.7223   -1.8468  -31.7613 C   0  0  0  0  0  0  0  0  0  0  0  0
  -27.2036   -0.5149  -33.8566 C   0  0  0  0  0  0  0  0  0  0  0  0
  -26.7036    2.2598  -33.8387 C   0  0  0  0  0  0  0  0  0  0  0  0
  -25.8441   -0.4161  -33.2140 C   0  0  0  0  0  0  0  0  0  0  0  0
  -25.0866    2.0175  -33.5811 C   0  0  0  0  0  0  0  0  0  0  0  0
  -24.7441    0.5449  -33.7291 C   0  0  0  0  0  0  0  0  0  0  0  0
  -24.7572    2.7146  -32.4634 C   0  0  0  0  0  0  0  0  0  0  0  0
  -24.4869    2.8720  -34.9006 C   0  0  0  0  0  0  0  0  0  0  0  0
  -23.9428    2.3341  -35.9977 C   0  0  0  0  0  0  0  0  0  0  0  0
  -23.2511    2.4497  -33.2339 C   0  0  0  0  0  0  0  0  0  0  0  0
  -23.1072    4.0714  -31.4823 C   0  0  0  0  0  0  0  0  0  0  0  0
  -22.3030    3.6025  -32.4977 C   0  0  0  0  0  0  0  0  0  0  0  0
  -22.0172    3.4339  -34.9880 C   0  0  0  0  0  0  0  0  0  0  0  0
  -21.8245   -2.8308  -30.4297 C   0  0  0  0  0  0  0  0  0  0  0  0
  -21.5699    3.3330  -36.4387 C   0  0  0  0  0  0  0  0  0  0  0  0
  -20.8467   -2.1894  -29.5295 C   0  0  0  0  0  0  0  0  0  0  0  0
  -20.7861    3.1492  -34.0927 C   0  0  0  0  0  0  0  0  0  0  0  0
  -20.9221    3.7228  -32.7416 C   0  0  0  0  0  0  0  0  0  0  0  0
  -20.4238   -0.3625  -31.1909 C   0  0  0  0  0  0  0  0  0  0  0  0
  -19.9622    3.2297  -31.7391 C   0  0  0  0  0  0  0  0  0  0  0  0
  -19.7935   -1.3661  -30.2679 C   0  0  0  0  0  0  0  0  0  0  0  0
  -19.8556    0.9684  -30.8715 C   0  0  0  0  0  0  0  0  0  0  0  0
  -19.5676    0.7753  -29.4108 C   0  0  0  0  0  0  0  0  0  0  0  0
  -18.9871    1.5802  -31.9333 C   0  0  0  0  0  0  0  0  0  0  0  0
  -18.8813   -2.3536  -30.9551 C   0  0  0  0  0  0  0  0  0  0  0  0
  -29.5182   -1.0949  -33.1904 O   0  0  0  0  0  0  0  0  0  0  0  0
  -29.5856    2.6274  -33.4214 O   0  0  0  0  0  0  0  0  0  0  0  0
  -24.4267    3.7828  -31.8522 O   0  0  0  0  0  0  0  0  0  0  0  0
  -22.8898   -3.3399  -29.7024 O   0  0  0  0  0  0  0  0  0  0  0  0
  -22.9410    2.3173  -34.8164 O   0  0  0  0  0  0  0  0  0  0  0  0
  -21.7419   -0.1557  -30.8730 O   0  0  0  0  0  0  0  0  0  0  0  0
  -20.4446    3.7907  -36.6930 O   0  0  0  0  0  0  0  0  0  0  0  0
  -18.9907   -0.6433  -29.3517 O   0  0  0  0  0  0  0  0  0  0  0  0
  1  3  1  0
  1  4  1  0
  1  5  1  0
  2  5  1  0
  3 34  1  0
  4 33  1  0
  6 34  1  0
  7  8  1  0
  7  9  1  0
  7 33  1  0
  9 11  1  0
 10 12  1  0
 11 13  1  0
 12 13  1  0
 12 14  1  0
 12 15  1  0
 14 17  1  0
 14 35  1  0
 15 16  1  0
 16 37  1  0
 17 19  1  0
 18 19  1  0
 18 35  1  0
 19 25  1  0
 20 22  1  0
 20 24  1  0
 20 37  1  0
 21 23  1  0
 21 36  1  0
 22 39  2  0
 23 28  1  0
 24 25  1  0
 25 27  1  0
 26 28  1  0
 26 29  1  0
 26 38  1  0
 27 31  1  0
 28 32  1  0
 28 40  1  0
 29 30  1  0
 29 31  1  0
 30 40  1  0
M  END
$$$$

     RDKit          3D

 40 44  0  0  0  0  0  0  0  0999 V2000
  -30.1754   -0.1388  -34.1618 C   0  0  0  0  0  0  0  0  0  0  0  0
  -30.0842    2.3677  -33.5701 C   0  0  0  0  0  0  0  0  0  0  0  0
  -29.4482    1.0976  -33.6668 C   0  0  0  0  0  0  0  0  0  0  0  0
  -29.4089    3.4811  -33.0614 C   0  0  0  0  0  0  0  0  0  0  0  0
  -28.0899    0.9549  -33.3171 C   0  0  0  0  0  0  0  0  0  0  0  0
  -28.0570    3.3553  -32.6178 C   0  0  0  0  0  0  0  0  0  0  0  0
  -27.6865    7.8156  -29.9078 C   0  0  0  0  0  0  0  0  0  0  0  0
  -27.3761    2.0801  -32.7998 C   0  0  0  0  0  0  0  0  0  0  0  0
  -27.2842    4.5454  -32.1086 C   0  0  0  0  0  0  0  0  0  0  0  0
  -27.4146    5.2665  -30.7341 C   0  0  0  0  0  0  0  0  0  0  0  0
  -27.0357    5.7203  -32.9490 C   0  0  0  0  0  0  0  0  0  0  0  0
  -27.0839    6.7116  -30.6978 C   0  0  0  0  0  0  0  0  0  0  0  0
  -26.4386    7.2023  -31.9827 C   0  0  0  0  0  0  0  0  0  0  0  0
  -25.1808    2.0639  -31.6052 C   0  0  0  0  0  0  0  0  0  0  0  0
  -24.8737    7.4018  -31.7701 C   0  0  0  0  0  0  0  0  0  0  0  0
  -24.0378    6.4841  -32.6658 C   0  0  0  0  0  0  0  0  0  0  0  0
  -23.7110    2.1788  -31.9816 C   0  0  0  0  0  0  0  0  0  0  0  0
  -23.4977    2.8265  -33.4089 C   0  0  0  0  0  0  0  0  0  0  0  0
  -23.4315    4.4607  -33.5443 C   0  0  0  0  0  0  0  0  0  0  0  0
  -23.3022    5.6308  -34.6232 C   0  0  0  0  0  0  0  0  0  0  0  0
  -23.1250    0.7822  -32.1712 C   0  0  0  0  0  0  0  0  0  0  0  0
  -22.4075   -1.8434  -30.7577 C   0  0  0  0  0  0  0  0  0  0  0  0
  -21.8564   -3.1894  -30.5727 C   0  0  0  0  0  0  0  0  0  0  0  0
  -21.8213    1.6559  -30.4850 C   0  0  0  0  0  0  0  0  0  0  0  0
  -21.5193   -0.7685  -31.0682 C   0  0  0  0  0  0  0  0  0  0  0  0
  -20.4414   -3.4052  -30.6208 C   0  0  0  0  0  0  0  0  0  0  0  0
  -20.1199   -1.0136  -31.0713 C   0  0  0  0  0  0  0  0  0  0  0  0
  -19.8805   -4.7637  -30.4801 C   0  0  0  0  0  0  0  0  0  0  0  0
  -19.5983   -2.2952  -30.8571 C   0  0  0  0  0  0  0  0  0  0  0  0
  -27.3951   -0.1951  -33.5437 O   0  0  0  0  0  0  0  0  0  0  0  0
  -22.8917    2.5729  -30.8395 O   0  0  0  0  0  0  0  0  0  0  0  0
  -26.0396    1.8193  -32.5853 N   0  0  0  0  0  0  0  0  0  0  0  0
  -25.4708    2.0298  -30.3184 N   0  0  0  0  0  0  0  0  0  0  0  0
  -23.8291    5.1736  -32.4037 N   0  0  0  0  0  0  0  0  0  0  0  0
  -23.6797    6.7037  -33.9736 N   0  0  0  0  0  0  0  0  0  0  0  0
  -22.0013    0.5481  -31.3479 N   0  0  0  0  0  0  0  0  0  0  0  0
  -31.3815   -0.0629  -34.4525 F   0  0  0  0  0  0  0  0  0  0  0  0
  -30.1647   -1.0176  -33.2647 F   0  0  0  0  0  0  0  0  0  0  0  0
  -29.8694   -0.2968  -35.5152 F   0  0  0  0  0  0  0  0  0  0  0  0
  -19.2219   -6.0085  -31.3861 F   0  0  0  0  0  0  0  0  0  0  0  0
  1  3  1  0
  1 37  1  0
  1 38  1  0
  1 39  1  0
  2  3  2  0
  2  4  1  0
  3  5  1  0
  4  6  2  0
  5  8  2  0
  5 30  1  0
  6  8  1  0
  6  9  1  0
  7 12  1  0
  8 32  1  0
  9 10  1  0
  9 11  1  0
 10 12  1  0
 12 13  1  0
 13 15  1  0
 14 17  1  0
 14 32  1  0
 14 33  2  0
 15 16  1  0
 16 34  2  0
 16 35  1  0
 17 18  1  0
 17 21  1  0
 17 31  1  0
 18 19  2  3
 19 20  1  0
 19 34  1  0
 20 35  1  0
 21 36  1  0
 22 23  2  0
 22 25  1  0
 23 26  1  0
 24 31  1  0
 24 36  1  0
 25 27  2  0
 25 36  1  0
 26 28  1  0
 26 29  2  0
 27 29  1  0
 28 40  1  0
M  END
$$$$

     RDKit          3D

 36 39  0  0  0  0  0  0  0  0999 V2000
  -32.7306    2.8923  -37.0534 C   0  0  0  0  0  0  0  0  0  0  0  0
  -31.4521    2.4585  -34.7706 C   0  0  0  0  0  0  0  0  0  0  0  0
  -30.9027    2.0862  -33.5561 C   0  0  0  0  0  0  0  0  0  0  0  0
  -30.7006    3.0307  -35.7781 C   0  0  0  0  0  0  0  0  0  0  0  0
  -29.5015    2.2030  -33.3331 C   0  0  0  0  0  0  0  0  0  0  0  0
  -29.2867    3.0436  -35.5891 C   0  0  0  0  0  0  0  0  0  0  0  0
  -28.6828    2.6984  -34.3567 C   0  0  0  0  0  0  0  0  0  0  0  0
  -27.9960   -2.1188  -31.3886 C   0  0  0  0  0  0  0  0  0  0  0  0
  -26.4192    1.8851  -34.7387 C   0  0  0  0  0  0  0  0  0  0  0  0
  -26.0521   -0.7424  -32.2093 C   0  0  0  0  0  0  0  0  0  0  0  0
  -25.9751    0.8548  -33.7765 C   0  0  0  0  0  0  0  0  0  0  0  0
  -24.7094   -0.3403  -32.4015 C   0  0  0  0  0  0  0  0  0  0  0  0
  -23.3950   -2.1413  -31.2654 C   0  0  0  0  0  0  0  0  0  0  0  0
  -23.4487   -0.8575  -31.7405 C   0  0  0  0  0  0  0  0  0  0  0  0
  -22.2417   -0.0559  -31.7139 C   0  0  0  0  0  0  0  0  0  0  0  0
  -22.4029    5.5016  -33.7892 C   0  0  0  0  0  0  0  0  0  0  0  0
  -22.1513   -2.7062  -30.8538 C   0  0  0  0  0  0  0  0  0  0  0  0
  -22.0917    4.1481  -34.0617 C   0  0  0  0  0  0  0  0  0  0  0  0
  -21.7232    7.2930  -36.6892 C   0  0  0  0  0  0  0  0  0  0  0  0
  -21.7860    7.6879  -34.6345 C   0  0  0  0  0  0  0  0  0  0  0  0
  -21.4791    2.0250  -32.9107 C   0  0  0  0  0  0  0  0  0  0  0  0
  -21.5580    3.4346  -32.8504 C   0  0  0  0  0  0  0  0  0  0  0  0
  -20.9707   -2.0022  -30.9582 C   0  0  0  0  0  0  0  0  0  0  0  0
  -20.9947   -0.6774  -31.3405 C   0  0  0  0  0  0  0  0  0  0  0  0
  -20.7038    4.2978  -32.1012 C   0  0  0  0  0  0  0  0  0  0  0  0
  -33.4475    1.5032  -36.5305 O   0  0  0  0  0  0  0  0  0  0  0  0
  -31.3135    3.4827  -36.9424 O   0  0  0  0  0  0  0  0  0  0  0  0
  -26.6984   -1.5817  -31.4558 O   0  0  0  0  0  0  0  0  0  0  0  0
  -26.0470    2.0527  -35.8156 O   0  0  0  0  0  0  0  0  0  0  0  0
  -27.2799    2.8637  -34.2269 N   0  0  0  0  0  0  0  0  0  0  0  0
  -26.8035    0.0569  -33.1190 N   0  0  0  0  0  0  0  0  0  0  0  0
  -24.7272    0.6347  -33.3436 N   0  0  0  0  0  0  0  0  0  0  0  0
  -22.3023    1.2404  -32.0854 N   0  0  0  0  0  0  0  0  0  0  0  0
  -22.0729    6.1889  -36.1451 N   0  0  0  0  0  0  0  0  0  0  0  0
  -22.0497    6.3924  -34.8102 N   0  0  0  0  0  0  0  0  0  0  0  0
  -21.5166    8.2399  -35.8098 N   0  0  0  0  0  0  0  0  0  0  0  0
  1 26  1  0
  1 27  1  0
  2  3  2  0
  2  4  1  0
  3  5  1  0
  4  6  2  0
  4 27  1  0
  5  7  2  0
  6  7  1  0
  7 30  1  0
  8 28  1  0
  9 11  1  0
  9 29  2  0
  9 30  1  0
 10 12  2  0
 10 28  1  0
 10 31  1  0
 11 31  2  0
 11 32  1  0
 12 14  1  0
 12 32  1  0
 13 14  2  0
 13 17  1  0
 14 15  1  0
 15 24  2  0
 15 33  1  0
 16 18  1  0
 16 35  1  0
 17 23  2  0
 18 22  1  0
 19 34  1  0
 19 36  1  0
 20 35  1  0
 20 36  1  0
 21 22  1  0
 21 33  2  3
 22 25  1  0
 23 24  1  0
 34 35  1  0
M  END
$$$$

     RDKit          3D

 31 34  0  0  0  0  0  0  0  0999 V2000
  -28.2820   -1.5965  -32.5578 C   0  0  0  0  0  0  0  0  0  0  0  0
  -27.0356   -0.8189  -32.7845 C   0  0  0  0  0  0  0  0  0  0  0  0
  -26.4775    6.8170  -35.0026 C   0  0  0  0  0  0  0  0  0  0  0  0
  -26.2951    8.1817  -34.6320 C   0  0  0  0  0  0  0  0  0  0  0  0
  -25.9620    4.8447  -30.7778 C   0  0  0  0  0  0  0  0  0  0  0  0
  -26.0778    5.8258  -34.1350 C   0  0  0  0  0  0  0  0  0  0  0  0
  -25.9394    3.4511  -33.6201 C   0  0  0  0  0  0  0  0  0  0  0  0
  -25.4931    0.3915  -33.7187 C   0  0  0  0  0  0  0  0  0  0  0  0
  -25.5808    2.5695  -34.7849 C   0  0  0  0  0  0  0  0  0  0  0  0
  -25.6725    8.4804  -33.4167 C   0  0  0  0  0  0  0  0  0  0  0  0
  -25.4279    6.1230  -32.9419 C   0  0  0  0  0  0  0  0  0  0  0  0
  -25.2208    7.4428  -32.5760 C   0  0  0  0  0  0  0  0  0  0  0  0
  -25.0519   -0.0099  -32.4461 C   0  0  0  0  0  0  0  0  0  0  0  0
  -24.9601    4.9948  -31.9884 C   0  0  0  0  0  0  0  0  0  0  0  0
  -24.8458    1.2326  -34.6975 C   0  0  0  0  0  0  0  0  0  0  0  0
  -23.8307    0.4417  -31.7847 C   0  0  0  0  0  0  0  0  0  0  0  0
  -22.7192   -1.8207  -31.1126 C   0  0  0  0  0  0  0  0  0  0  0  0
  -22.6730   -0.4247  -31.3727 C   0  0  0  0  0  0  0  0  0  0  0  0
  -21.5060   -2.5356  -30.7355 C   0  0  0  0  0  0  0  0  0  0  0  0
  -21.4195    0.2350  -31.1693 C   0  0  0  0  0  0  0  0  0  0  0  0
  -20.2705   -1.8520  -30.6554 C   0  0  0  0  0  0  0  0  0  0  0  0
  -20.2272   -0.4301  -30.8540 C   0  0  0  0  0  0  0  0  0  0  0  0
  -28.5066   -2.0113  -31.4207 O   0  0  0  0  0  0  0  0  0  0  0  0
  -26.7937    3.9504  -30.7236 O   0  0  0  0  0  0  0  0  0  0  0  0
  -26.4762    4.5410  -34.4215 O   0  0  0  0  0  0  0  0  0  0  0  0
  -25.9062    5.7523  -29.8986 O   0  0  0  0  0  0  0  0  0  0  0  0
  -26.7592   -0.1241  -33.9012 N   0  0  0  0  0  0  0  0  0  0  0  0
  -26.0266   -0.7672  -31.9292 N   0  0  0  0  0  0  0  0  0  0  0  0
  -24.8580    3.7376  -32.7340 N   0  0  0  0  0  0  0  0  0  0  0  0
  -28.8743   -2.0717  -33.7301 F   0  0  0  0  0  0  0  0  0  0  0  0
  -21.4415   -4.1607  -30.6190 Cl  0  0  0  0  0  0  0  0  0  0  0  0
  1  2  1  0
  1 23  2  0
  1 30  1  0
  2 27  2  0
  2 28  1  0
  3  4  2  0
  3  6  1  0
  4 10  1  0
  5 14  1  0
  5 24  2  0
  5 26  1  0
  6 11  2  0
  6 25  1  0
  7  9  1  0
  7 25  1  0
  7 29  1  0
  8 13  2  0
  8 15  1  0
  8 27  1  0
  9 15  1  0
 10 12  2  0
 11 12  1  0
 11 14  1  0
 13 16  1  0
 13 28  1  0
 14 29  1  0
 16 18  1  0
 17 18  2  0
 17 19  1  0
 18 20  1  0
 19 21  2  0
 19 31  1  0
 20 22  2  0
 21 22  1  0
M  END
$$$$

     RDKit          3D

 33 35  0  0  0  0  0  0  0  0999 V2000
  -31.5124   -0.8679  -35.3301 C   0  0  0  0  0  0  0  0  0  0  0  0
  -31.4459    0.0771  -34.3079 C   0  0  0  0  0  0  0  0  0  0  0  0
  -30.5407   -1.8140  -35.4910 C   0  0  0  0  0  0  0  0  0  0  0  0
  -30.3773    0.0261  -33.4200 C   0  0  0  0  0  0  0  0  0  0  0  0
  -29.4650   -1.8292  -34.6126 C   0  0  0  0  0  0  0  0  0  0  0  0
  -29.3811   -0.8929  -33.6205 C   0  0  0  0  0  0  0  0  0  0  0  0
  -28.2175   -1.7694  -31.7125 C   0  0  0  0  0  0  0  0  0  0  0  0
  -26.3004   -0.6054  -32.0561 C   0  0  0  0  0  0  0  0  0  0  0  0
  -24.8450   -0.5234  -32.1719 C   0  0  0  0  0  0  0  0  0  0  0  0
  -24.2356    4.5823  -32.8323 C   0  0  0  0  0  0  0  0  0  0  0  0
  -22.8035   -1.1415  -30.8842 C   0  0  0  0  0  0  0  0  0  0  0  0
  -22.8488    4.1932  -33.4782 C   0  0  0  0  0  0  0  0  0  0  0  0
  -22.7949    5.2263  -31.2704 C   0  0  0  0  0  0  0  0  0  0  0  0
  -22.3275   -2.4454  -30.7545 C   0  0  0  0  0  0  0  0  0  0  0  0
  -22.4586    1.3388  -30.8708 C   0  0  0  0  0  0  0  0  0  0  0  0
  -22.3757    3.1996  -33.7118 C   0  0  0  0  0  0  0  0  0  0  0  0
  -22.3370    6.3312  -33.2259 C   0  0  0  0  0  0  0  0  0  0  0  0
  -21.9017   -0.0891  -30.9189 C   0  0  0  0  0  0  0  0  0  0  0  0
  -21.8086    3.3460  -32.3631 C   0  0  0  0  0  0  0  0  0  0  0  0
  -21.6972    4.2838  -31.1708 C   0  0  0  0  0  0  0  0  0  0  0  0
  -21.0173   -2.7711  -30.6225 C   0  0  0  0  0  0  0  0  0  0  0  0
  -20.5409   -0.3497  -30.8571 C   0  0  0  0  0  0  0  0  0  0  0  0
  -20.1027   -1.7231  -30.7831 C   0  0  0  0  0  0  0  0  0  0  0  0
  -24.3164   -0.1577  -33.2418 O   0  0  0  0  0  0  0  0  0  0  0  0
  -23.1714    1.6464  -29.9188 O   0  0  0  0  0  0  0  0  0  0  0  0
  -28.2703   -0.9235  -32.7648 N   0  0  0  0  0  0  0  0  0  0  0  0
  -27.1628   -0.2754  -33.0010 N   0  0  0  0  0  0  0  0  0  0  0  0
  -26.9109   -1.5111  -31.2855 N   0  0  0  0  0  0  0  0  0  0  0  0
  -24.1934   -0.9545  -31.0718 N   0  0  0  0  0  0  0  0  0  0  0  0
  -23.2364    5.3414  -32.6221 N   0  0  0  0  0  0  0  0  0  0  0  0
  -22.4493    2.2325  -31.8715 N   0  0  0  0  0  0  0  0  0  0  0  0
  -30.5827   -3.0964  -36.8056 Cl  0  0  0  0  0  0  0  0  0  0  0  0
  -20.4561   -4.3529  -30.4096 Cl  0  0  0  0  0  0  0  0  0  0  0  0
  1  2  2  0
  1  3  1  0
  2  4  1  0
  3  5  2  0
  3 32  1  0
  4  6  2  0
  5  6  1  0
  6 26  1  0
  7 26  1  0
  7 28  1  0
  8  9  1  0
  8 27  2  0
  8 28  1  0
  9 24  2  0
  9 29  1  0
 10 30  1  0
 11 14  2  0
 11 18  1  0
 11 29  1  0
 12 16  1  0
 13 20  1  0
 13 30  1  0
 14 21  1  0
 15 18  1  0
 15 25  2  0
 15 31  1  0
 16 19  1  0
 17 30  1  0
 18 22  2  0
 19 20  1  0
 19 31  1  0
 21 23  2  0
 21 33  1  0
 22 23  1  0
 26 27  1  0
M  END
$$$$

     RDKit          3D

 49 51  0  0  0  0  0  0  0  0999 V2000
  -31.2724   -1.1891  -37.0646 C   0  0  0  0  0  0  0  0  0  0  0  0
  -31.1350   -2.5249  -37.0228 C   0  0  0  0  0  0  0  0  0  0  0  0
  -30.6134   -0.3865  -36.1357 C   0  0  0  0  0  0  0  0  0  0  0  0
  -30.6988    0.9647  -36.3836 C   0  0  0  0  0  0  0  0  0  0  0  0
  -30.4121   -3.1420  -35.9445 C   0  0  0  0  0  0  0  0  0  0  0  0
  -29.7726   -2.3354  -34.9913 C   0  0  0  0  0  0  0  0  0  0  0  0
  -29.8506   -0.9089  -35.0937 C   0  0  0  0  0  0  0  0  0  0  0  0
  -29.9351    1.8311  -35.6869 C   0  0  0  0  0  0  0  0  0  0  0  0
  -29.2114    1.3873  -34.5603 C   0  0  0  0  0  0  0  0  0  0  0  0
  -29.1704    0.0213  -34.2477 C   0  0  0  0  0  0  0  0  0  0  0  0
  -28.5174    2.4111  -33.8749 C   0  0  0  0  0  0  0  0  0  0  0  0
  -28.4147   -0.4240  -33.0809 C   0  0  0  0  0  0  0  0  0  0  0  0
  -27.3172    3.2575  -31.8756 C   0  0  0  0  0  0  0  0  0  0  0  0
  -26.5424    3.7341  -34.0710 C   0  0  0  0  0  0  0  0  0  0  0  0
  -26.1060   -0.3228  -32.5830 C   0  0  0  0  0  0  0  0  0  0  0  0
  -24.9840    0.4502  -33.1054 C   0  0  0  0  0  0  0  0  0  0  0  0
  -25.2073    4.5124  -32.2871 C   0  0  0  0  0  0  0  0  0  0  0  0
  -24.9201    0.8056  -34.4443 C   0  0  0  0  0  0  0  0  0  0  0  0
  -24.4218    5.2154  -33.2333 C   0  0  0  0  0  0  0  0  0  0  0  0
  -24.0068    0.7831  -32.1950 C   0  0  0  0  0  0  0  0  0  0  0  0
  -23.7291    1.4456  -34.8906 C   0  0  0  0  0  0  0  0  0  0  0  0
  -23.7235    5.3693  -35.5700 C   0  0  0  0  0  0  0  0  0  0  0  0
  -23.3313    6.1709  -32.8488 C   0  0  0  0  0  0  0  0  0  0  0  0
  -22.8165    1.3682  -32.6281 C   0  0  0  0  0  0  0  0  0  0  0  0
  -22.7502    6.9472  -33.9435 C   0  0  0  0  0  0  0  0  0  0  0  0
  -22.6942    1.8072  -33.9620 C   0  0  0  0  0  0  0  0  0  0  0  0
  -22.5534    6.0218  -35.1661 C   0  0  0  0  0  0  0  0  0  0  0  0
  -22.2937   -0.5702  -30.4415 C   0  0  0  0  0  0  0  0  0  0  0  0
  -22.1533    5.3454  -32.3017 C   0  0  0  0  0  0  0  0  0  0  0  0
  -21.8984   -1.3809  -29.2517 C   0  0  0  0  0  0  0  0  0  0  0  0
  -21.7140    1.4456  -31.6399 C   0  0  0  0  0  0  0  0  0  0  0  0
  -21.5778   -2.6831  -30.0038 C   0  0  0  0  0  0  0  0  0  0  0  0
  -20.6287   -2.1139  -31.3006 C   0  0  0  0  0  0  0  0  0  0  0  0
  -20.6457   -0.6896  -28.6013 C   0  0  0  0  0  0  0  0  0  0  0  0
  -20.5888    0.6898  -29.3819 C   0  0  0  0  0  0  0  0  0  0  0  0
  -20.0006   -0.4454  -26.1083 C   0  0  0  0  0  0  0  0  0  0  0  0
  -20.1091   -0.2437  -31.4717 C   0  0  0  0  0  0  0  0  0  0  0  0
  -20.0806    0.8417  -25.4062 C   0  0  0  0  0  0  0  0  0  0  0  0
  -19.4093   -1.5843  -28.4949 C   0  0  0  0  0  0  0  0  0  0  0  0
  -28.7444    2.7201  -32.6685 O   0  0  0  0  0  0  0  0  0  0  0  0
  -27.6547    3.1846  -34.6294 O   0  0  0  0  0  0  0  0  0  0  0  0
  -26.1500   -0.6125  -31.3189 O   0  0  0  0  0  0  0  0  0  0  0  0
  -27.1094   -0.7078  -33.4538 N   0  0  0  0  0  0  0  0  0  0  0  0
  -26.2551    3.7953  -32.7353 N   0  0  0  0  0  0  0  0  0  0  0  0
  -25.6778    4.2131  -34.9622 N   0  0  0  0  0  0  0  0  0  0  0  0
  -24.9733    4.5565  -30.9711 N   0  0  0  0  0  0  0  0  0  0  0  0
  -24.5957    4.8514  -34.4998 N   0  0  0  0  0  0  0  0  0  0  0  0
  -21.2599    0.3892  -30.7823 N   0  0  0  0  0  0  0  0  0  0  0  0
  -20.9382   -0.4060  -27.1663 N   0  0  0  0  0  0  0  0  0  0  0  0
  1  2  2  0
  1  3  1  0
  2  5  1  0
  3  4  2  0
  3  7  1  0
  4  8  1  0
  5  6  2  0
  6  7  1  0
  7 10  2  0
  8  9  2  0
  9 10  1  0
  9 11  1  0
 10 12  1  0
 11 40  2  0
 11 41  1  0
 12 43  1  0
 13 44  1  0
 14 41  1  0
 14 44  1  0
 14 45  2  3
 15 16  1  0
 15 42  2  0
 15 43  1  0
 16 18  2  0
 16 20  1  0
 17 19  1  0
 17 44  1  0
 17 46  2  0
 18 21  1  0
 19 23  1  0
 20 24  2  0
 21 26  2  0
 22 27  1  0
 23 25  1  0
 23 29  1  0
 24 26  1  0
 24 31  1  0
 25 27  1  0
 28 30  1  0
 28 48  1  0
 30 32  1  0
 30 34  1  0
 31 48  1  0
 32 33  1  0
 34 35  1  0
 34 39  1  0
 34 49  1  0
 36 38  1  0
 36 49  1  0
 37 48  1  0
 45 47  1  0
M  END
$$$$

     RDKit          3D

 23 24  0  0  0  0  0  0  0  0999 V2000
  -31.3007   -0.0850  -34.5114 C   0  0  0  0  0  0  0  0  0  0  0  0
  -30.1122    0.4711  -33.6818 C   0  0  0  0  0  0  0  0  0  0  0  0
  -28.8313    0.0080  -34.3758 C   0  0  0  0  0  0  0  0  0  0  0  0
  -28.1579   -1.1545  -33.6965 C   0  0  0  0  0  0  0  0  0  0  0  0
  -26.9356   -0.7736  -32.8855 C   0  0  0  0  0  0  0  0  0  0  0  0
  -25.8989   -0.4117  -33.7784 C   0  0  0  0  0  0  0  0  0  0  0  0
  -25.2366    3.5633  -32.8334 C   0  0  0  0  0  0  0  0  0  0  0  0
  -25.3432    6.2349  -32.6088 C   0  0  0  0  0  0  0  0  0  0  0  0
  -24.5911    0.1437  -33.1632 C   0  0  0  0  0  0  0  0  0  0  0  0
  -24.5708    0.0243  -31.6470 C   0  0  0  0  0  0  0  0  0  0  0  0
  -24.0535    1.3801  -35.2738 C   0  0  0  0  0  0  0  0  0  0  0  0
  -24.2059    1.4130  -33.8245 C   0  0  0  0  0  0  0  0  0  0  0  0
  -24.0489    2.6514  -33.0187 C   0  0  0  0  0  0  0  0  0  0  0  0
  -23.4589    2.1817  -31.6461 C   0  0  0  0  0  0  0  0  0  0  0  0
  -23.3443    6.4142  -32.0528 C   0  0  0  0  0  0  0  0  0  0  0  0
  -26.3932    3.1649  -32.8556 O   0  0  0  0  0  0  0  0  0  0  0  0
  -25.5870   -1.2949  -34.6334 O   0  0  0  0  0  0  0  0  0  0  0  0
  -24.8233   -1.0880  -31.1330 O   0  0  0  0  0  0  0  0  0  0  0  0
  -24.1671    1.0491  -31.0300 O   0  0  0  0  0  0  0  0  0  0  0  0
  -27.0037   -0.4271  -33.1478 N   0  0  0  0  0  0  0  0  0  0  0  0
  -24.8684    4.9616  -32.5759 N   0  0  0  0  0  0  0  0  0  0  0  0
  -24.4371    7.0986  -32.1975 N   0  0  0  0  0  0  0  0  0  0  0  0
  -23.6594    5.1986  -32.1661 N   0  0  0  0  0  0  0  0  0  0  0  0
  1  2  1  0
  2  3  1  0
  3  4  1  0
  4  5  1  0
  5 20  1  0
  6  9  1  0
  6 17  2  0
  6 20  1  0
  7 13  1  0
  7 16  2  0
  7 21  1  0
  8 21  1  0
  8 22  1  0
  9 10  1  0
  9 12  1  0
 10 18  2  0
 10 19  1  0
 11 12  1  0
 12 13  1  0
 13 14  1  0
 14 19  1  0
 15 22  1  0
 15 23  1  0
 21 23  1  0
M  END
$$$$

     RDKit          3D

 32 36  0  0  0  0  0  0  0  0999 V2000
  -31.9213    1.9873  -34.2945 C   0  0  0  0  0  0  0  0  0  0  0  0
  -31.4899    4.3361  -34.7044 C   0  0  0  0  0  0  0  0  0  0  0  0
  -31.0914    3.1253  -33.8348 C   0  0  0  0  0  0  0  0  0  0  0  0
  -29.5978    3.1419  -33.6214 C   0  0  0  0  0  0  0  0  0  0  0  0
  -29.1158    4.4131  -33.3914 C   0  0  0  0  0  0  0  0  0  0  0  0
  -28.7570    2.0130  -33.4673 C   0  0  0  0  0  0  0  0  0  0  0  0
  -27.7615    4.6144  -33.3082 C   0  0  0  0  0  0  0  0  0  0  0  0
  -27.4056    2.2415  -33.2411 C   0  0  0  0  0  0  0  0  0  0  0  0
  -27.1402   -0.0547  -32.4398 C   0  0  0  0  0  0  0  0  0  0  0  0
  -26.8922    3.5221  -33.2415 C   0  0  0  0  0  0  0  0  0  0  0  0
  -26.5558    1.1698  -32.8275 C   0  0  0  0  0  0  0  0  0  0  0  0
  -26.3189   -1.0075  -31.8076 C   0  0  0  0  0  0  0  0  0  0  0  0
  -25.4473    3.7546  -33.1515 C   0  0  0  0  0  0  0  0  0  0  0  0
  -25.1720    1.3948  -32.7195 C   0  0  0  0  0  0  0  0  0  0  0  0
  -24.9554   -0.7910  -31.6943 C   0  0  0  0  0  0  0  0  0  0  0  0
  -24.3769    0.3636  -32.2102 C   0  0  0  0  0  0  0  0  0  0  0  0
  -23.1863    2.8958  -33.1290 C   0  0  0  0  0  0  0  0  0  0  0  0
  -22.8271   -1.6267  -30.8295 C   0  0  0  0  0  0  0  0  0  0  0  0
  -22.5668    2.7582  -34.3656 C   0  0  0  0  0  0  0  0  0  0  0  0
  -22.4964    3.3850  -32.0309 C   0  0  0  0  0  0  0  0  0  0  0  0
  -22.2208   -2.8998  -30.7245 C   0  0  0  0  0  0  0  0  0  0  0  0
  -21.9945   -0.4955  -30.9989 C   0  0  0  0  0  0  0  0  0  0  0  0
  -21.2312    3.1115  -34.5494 C   0  0  0  0  0  0  0  0  0  0  0  0
  -21.0929    3.6674  -32.1567 C   0  0  0  0  0  0  0  0  0  0  0  0
  -20.8735   -3.0231  -30.8661 C   0  0  0  0  0  0  0  0  0  0  0  0
  -20.6365   -0.6676  -31.1169 C   0  0  0  0  0  0  0  0  0  0  0  0
  -20.4575    3.5102  -33.4710 C   0  0  0  0  0  0  0  0  0  0  0  0
  -20.2207   -4.3847  -30.8076 C   0  0  0  0  0  0  0  0  0  0  0  0
  -20.0434   -1.9454  -31.1276 C   0  0  0  0  0  0  0  0  0  0  0  0
  -24.2304   -1.6203  -30.8638 O   0  0  0  0  0  0  0  0  0  0  0  0
  -20.7318    3.1079  -35.8687 O   0  0  0  0  0  0  0  0  0  0  0  0
  -24.5708    2.6266  -33.0863 N   0  0  0  0  0  0  0  0  0  0  0  0
  1  3  1  0
  2  3  1  0
  3  4  1  0
  4  5  1  0
  4  6  2  0
  5  7  2  0
  6  8  1  0
  7 10  1  0
  8 10  1  0
  8 11  2  0
  9 11  1  0
  9 12  2  0
 10 13  2  0
 11 14  1  0
 12 15  1  0
 13 32  1  0
 14 16  1  0
 14 32  1  0
 15 16  2  0
 15 30  1  0
 17 19  1  0
 17 20  2  0
 17 32  1  0
 18 21  1  0
 18 22  1  0
 18 30  1  0
 19 23  1  0
 20 24  1  0
 21 25  2  0
 22 26  2  0
 23 27  2  0
 23 31  1  0
 24 27  1  0
 25 28  1  0
 25 29  1  0
 26 29  1  0
M  END
$$$$

     RDKit          3D

 49 52  0  0  0  0  0  0  0  0999 V2000
  -30.5832    2.4647  -33.5789 C   0  0  0  0  0  0  0  0  0  0  0  0
  -30.3519    0.0987  -35.8069 C   0  0  0  0  0  0  0  0  0  0  0  0
  -30.1627   -0.2598  -33.2965 C   0  0  0  0  0  0  0  0  0  0  0  0
  -29.4776    0.3715  -34.4486 C   0  0  0  0  0  0  0  0  0  0  0  0
  -29.3304   -2.1594  -34.6011 C   0  0  0  0  0  0  0  0  0  0  0  0
  -29.3686    1.6019  -33.7948 C   0  0  0  0  0  0  0  0  0  0  0  0
  -29.1311   -1.1200  -33.7607 C   0  0  0  0  0  0  0  0  0  0  0  0
  -27.7742   -1.0299  -33.1110 C   0  0  0  0  0  0  0  0  0  0  0  0
  -27.6232   -1.4728  -31.7710 C   0  0  0  0  0  0  0  0  0  0  0  0
  -25.5536   -0.3000  -33.1765 C   0  0  0  0  0  0  0  0  0  0  0  0
  -25.3662   -0.7876  -31.8560 C   0  0  0  0  0  0  0  0  0  0  0  0
  -25.1856    2.4095  -35.2365 C   0  0  0  0  0  0  0  0  0  0  0  0
  -24.4213    0.3120  -33.8487 C   0  0  0  0  0  0  0  0  0  0  0  0
  -24.0120    1.6052  -34.6067 C   0  0  0  0  0  0  0  0  0  0  0  0
  -24.0127    6.8624  -33.7548 C   0  0  0  0  0  0  0  0  0  0  0  0
  -23.6137    5.7203  -34.4343 C   0  0  0  0  0  0  0  0  0  0  0  0
  -23.4215    7.1185  -32.4882 C   0  0  0  0  0  0  0  0  0  0  0  0
  -22.6431    4.8519  -33.9042 C   0  0  0  0  0  0  0  0  0  0  0  0
  -22.4727    6.2213  -31.9469 C   0  0  0  0  0  0  0  0  0  0  0  0
  -22.0236    5.0892  -32.6512 C   0  0  0  0  0  0  0  0  0  0  0  0
  -21.7551    3.6172  -35.8063 C   0  0  0  0  0  0  0  0  0  0  0  0
  -21.5927   -1.5093  -30.8521 C   0  0  0  0  0  0  0  0  0  0  0  0
  -21.4485    1.1912  -31.2062 C   0  0  0  0  0  0  0  0  0  0  0  0
  -21.0070   -0.2749  -30.8616 C   0  0  0  0  0  0  0  0  0  0  0  0
  -21.0537    4.0732  -32.1332 C   0  0  0  0  0  0  0  0  0  0  0  0
  -21.0479    4.7224  -36.5095 C   0  0  0  0  0  0  0  0  0  0  0  0
  -20.7449   -2.6590  -30.7254 C   0  0  0  0  0  0  0  0  0  0  0  0
  -20.6166    2.5286  -30.3383 C   0  0  0  0  0  0  0  0  0  0  0  0
  -20.5936    2.8299  -28.7483 C   0  0  0  0  0  0  0  0  0  0  0  0
  -20.1728   -4.8071  -30.4792 C   0  0  0  0  0  0  0  0  0  0  0  0
  -19.5241   -0.3301  -30.6052 C   0  0  0  0  0  0  0  0  0  0  0  0
  -19.4341   -2.5251  -30.7078 C   0  0  0  0  0  0  0  0  0  0  0  0
  -19.2694    2.9541  -30.8082 C   0  0  0  0  0  0  0  0  0  0  0  0
  -18.9629    2.8934  -32.1608 C   0  0  0  0  0  0  0  0  0  0  0  0
  -18.7993   -1.3384  -30.5483 C   0  0  0  0  0  0  0  0  0  0  0  0
  -28.2775    1.9219  -33.0938 O   0  0  0  0  0  0  0  0  0  0  0  0
  -23.9552   -0.5405  -30.1032 O   0  0  0  0  0  0  0  0  0  0  0  0
  -23.1403   -1.9742  -30.9488 O   0  0  0  0  0  0  0  0  0  0  0  0
  -23.1852    1.3946  -36.0053 O   0  0  0  0  0  0  0  0  0  0  0  0
  -22.9409    2.8736  -38.0318 O   0  0  0  0  0  0  0  0  0  0  0  0
  -21.4887    3.4129  -30.9926 O   0  0  0  0  0  0  0  0  0  0  0  0
  -21.2288   -3.9654  -30.7911 O   0  0  0  0  0  0  0  0  0  0  0  0
  -21.0667    1.5947  -37.2092 O   0  0  0  0  0  0  0  0  0  0  0  0
  -26.7275   -0.5175  -33.7984 N   0  0  0  0  0  0  0  0  0  0  0  0
  -26.4188   -1.3141  -31.1378 N   0  0  0  0  0  0  0  0  0  0  0  0
  -24.1477   -0.6673  -31.3221 N   0  0  0  0  0  0  0  0  0  0  0  0
  -22.3319    3.6778  -34.5592 N   0  0  0  0  0  0  0  0  0  0  0  0
  -20.0265    3.4773  -32.8669 N   0  0  0  0  0  0  0  0  0  0  0  0
  -22.2261    2.3426  -36.8202 S   0  0  0  0  0  0  0  0  0  0  0  0
  1  6  1  0
  2  4  1  0
  3  4  1  0
  3  7  1  0
  4  6  1  0
  5  7  2  0
  6 36  1  0
  7  8  1  0
  8  9  2  0
  8 44  1  0
  9 45  1  0
 10 11  1  0
 10 13  1  0
 10 44  2  0
 11 45  2  0
 11 46  1  0
 12 14  1  0
 13 14  1  0
 14 39  1  0
 15 16  2  0
 15 17  1  0
 16 18  1  0
 17 19  2  0
 18 20  2  0
 18 47  1  0
 19 20  1  0
 20 25  1  0
 21 26  1  0
 21 47  1  0
 21 49  1  0
 22 24  2  0
 22 27  1  0
 22 38  1  0
 23 24  1  0
 23 28  1  0
 24 31  1  0
 25 41  1  0
 25 48  1  0
 27 32  2  0
 27 42  1  0
 28 29  1  0
 28 33  1  0
 28 41  1  0
 30 42  1  0
 31 35  2  0
 32 35  1  0
 33 34  1  0
 34 48  1  0
 37 46  2  0
 39 49  1  0
 40 49  1  0
 43 49  1  0
M  END
$$$$

     RDKit          3D

 24 25  0  0  0  0  0  0  0  0999 V2000
  -29.6461    3.8098  -33.0862 C   0  0  0  0  0  0  0  0  0  0  0  0
  -29.2248    4.9833  -32.3596 C   0  0  0  0  0  0  0  0  0  0  0  0
  -28.7506    2.7283  -33.3004 C   0  0  0  0  0  0  0  0  0  0  0  0
  -27.9170    5.0696  -31.9145 C   0  0  0  0  0  0  0  0  0  0  0  0
  -27.4609    2.8353  -32.7929 C   0  0  0  0  0  0  0  0  0  0  0  0
  -27.0157    4.0107  -32.1435 C   0  0  0  0  0  0  0  0  0  0  0  0
  -26.5303    0.6928  -33.7596 C   0  0  0  0  0  0  0  0  0  0  0  0
  -25.6801    4.1702  -31.7661 C   0  0  0  0  0  0  0  0  0  0  0  0
  -25.2511    0.7299  -34.5768 C   0  0  0  0  0  0  0  0  0  0  0  0
  -25.0848    3.4546  -30.7258 C   0  0  0  0  0  0  0  0  0  0  0  0
  -24.9918    5.1255  -32.5134 C   0  0  0  0  0  0  0  0  0  0  0  0
  -24.6937    1.9535  -34.8596 C   0  0  0  0  0  0  0  0  0  0  0  0
  -23.7519    3.7657  -30.3860 C   0  0  0  0  0  0  0  0  0  0  0  0
  -23.7329    5.4182  -32.2188 C   0  0  0  0  0  0  0  0  0  0  0  0
  -23.3504    2.1244  -35.0825 C   0  0  0  0  0  0  0  0  0  0  0  0
  -23.2541    6.4226  -32.9383 C   0  0  0  0  0  0  0  0  0  0  0  0
  -23.1177    4.7500  -31.1457 C   0  0  0  0  0  0  0  0  0  0  0  0
  -22.2764    1.9567  -34.0968 C   0  0  0  0  0  0  0  0  0  0  0  0
  -21.3373    2.9417  -34.7345 C   0  0  0  0  0  0  0  0  0  0  0  0
  -21.3768    3.9204  -34.3099 C   0  0  0  0  0  0  0  0  0  0  0  0
  -26.7866   -0.5663  -33.4169 O   0  0  0  0  0  0  0  0  0  0  0  0
  -20.8609    2.0355  -35.7149 O   0  0  0  0  0  0  0  0  0  0  0  0
  -26.6214    1.6996  -32.8137 N   0  0  0  0  0  0  0  0  0  0  0  0
  -22.8768    7.3094  -33.4817 N   0  0  0  0  0  0  0  0  0  0  0  0
  1  2  1  0
  1  3  1  0
  2  4  2  0
  3  5  2  0
  4  6  1  0
  5  6  1  0
  5 23  1  0
  6  8  1  0
  7  9  1  0
  7 21  1  0
  7 23  1  0
  8 10  2  0
  8 11  1  0
  9 12  1  0
 10 13  1  0
 11 14  2  0
 12 15  1  0
 13 17  2  0
 14 16  1  0
 14 17  1  0
 15 18  1  0
 16 24  3  0
 18 19  1  0
 19 20  2  0
 19 22  1  0
M  END
$$$$

     RDKit          3D

 37 39  0  0  0  0  0  0  0  0999 V2000
  -28.7541   -0.4156  -33.2158 C   0  0  0  0  0  0  0  0  0  0  0  0
  -28.8248    1.3042  -33.4388 C   0  0  0  0  0  0  0  0  0  0  0  0
  -27.4990    2.3123  -33.0387 C   0  0  0  0  0  0  0  0  0  0  0  0
  -27.3533   -0.9043  -33.3588 C   0  0  0  0  0  0  0  0  0  0  0  0
  -27.2449    3.4676  -33.9829 C   0  0  0  0  0  0  0  0  0  0  0  0
  -26.7581   -1.1229  -31.9597 C   0  0  0  0  0  0  0  0  0  0  0  0
  -26.4002    5.4903  -31.7085 C   0  0  0  0  0  0  0  0  0  0  0  0
  -26.2910    6.3054  -35.0845 C   0  0  0  0  0  0  0  0  0  0  0  0
  -26.1052    6.3434  -37.6786 C   0  0  0  0  0  0  0  0  0  0  0  0
  -25.8087    4.0395  -33.8770 C   0  0  0  0  0  0  0  0  0  0  0  0
  -25.7148    5.8492  -30.4438 C   0  0  0  0  0  0  0  0  0  0  0  0
  -25.4836    4.2946  -36.4150 C   0  0  0  0  0  0  0  0  0  0  0  0
  -25.4807    4.6525  -32.5196 C   0  0  0  0  0  0  0  0  0  0  0  0
  -25.5089    5.0042  -35.0471 C   0  0  0  0  0  0  0  0  0  0  0  0
  -25.2134    5.2027  -37.6043 C   0  0  0  0  0  0  0  0  0  0  0  0
  -24.4830   -1.4895  -31.0041 C   0  0  0  0  0  0  0  0  0  0  0  0
  -24.3131    5.2317  -30.5083 C   0  0  0  0  0  0  0  0  0  0  0  0
  -24.2056    4.5577  -31.8306 C   0  0  0  0  0  0  0  0  0  0  0  0
  -23.7392    1.2706  -31.8750 C   0  0  0  0  0  0  0  0  0  0  0  0
  -23.1158   -1.2871  -31.4419 C   0  0  0  0  0  0  0  0  0  0  0  0
  -22.9844    3.8262  -32.3089 C   0  0  0  0  0  0  0  0  0  0  0  0
  -22.8607    2.4077  -32.4563 C   0  0  0  0  0  0  0  0  0  0  0  0
  -21.9357   -1.9902  -30.8999 C   0  0  0  0  0  0  0  0  0  0  0  0
  -21.7386    1.8781  -33.2131 C   0  0  0  0  0  0  0  0  0  0  0  0
  -21.9418    4.6416  -32.7884 C   0  0  0  0  0  0  0  0  0  0  0  0
  -21.5012   -3.3582  -31.1557 C   0  0  0  0  0  0  0  0  0  0  0  0
  -20.6998    2.7112  -33.6343 C   0  0  0  0  0  0  0  0  0  0  0  0
  -20.7887    4.0980  -33.3907 C   0  0  0  0  0  0  0  0  0  0  0  0
  -20.1812   -3.8693  -30.6909 C   0  0  0  0  0  0  0  0  0  0  0  0
  -19.7619   -5.6483  -30.8345 C   0  0  0  0  0  0  0  0  0  0  0  0
  -19.0089   -1.7355  -30.2987 C   0  0  0  0  0  0  0  0  0  0  0  0
  -27.6111    5.9239  -31.9054 O   0  0  0  0  0  0  0  0  0  0  0  0
  -27.3403   -1.7677  -31.0469 O   0  0  0  0  0  0  0  0  0  0  0  0
  -22.8576    0.1208  -31.5887 O   0  0  0  0  0  0  0  0  0  0  0  0
  -25.4537   -0.7286  -31.7691 N   0  0  0  0  0  0  0  0  0  0  0  0
  -19.1685   -3.0886  -30.3156 N   0  0  0  0  0  0  0  0  0  0  0  0
  -24.1667    5.6060  -30.6191 S   0  0  0  0  0  0  0  0  0  0  0  0
  1  2  1  0
  1  4  1  0
  2  3  1  0
  3  5  1  0
  4  6  1  0
  5 10  1  0
  6 33  2  0
  6 35  1  0
  7 11  1  0
  7 13  2  0
  7 32  1  0
  8 14  1  0
  9 15  1  0
 10 13  1  0
 10 14  1  0
 11 37  1  0
 12 14  1  0
 12 15  1  0
 13 18  1  0
 16 20  1  0
 16 35  1  0
 17 37  1  0
 18 21  1  0
 18 37  1  0
 19 22  1  0
 19 34  1  0
 20 23  1  0
 20 34  1  0
 21 22  1  0
 21 25  1  0
 22 24  1  0
 23 26  2  3
 24 27  2  0
 25 28  2  0
 26 29  1  0
 27 28  1  0
 29 30  1  0
 29 36  2  3
 31 36  1  0
M  END
$$$$

     RDKit          3D

 35 38  0  0  0  0  0  0  0  0999 V2000
  -32.0923    0.9303  -34.4907 C   0  0  0  0  0  0  0  0  0  0  0  0
  -29.3078    0.3362  -34.6083 C   0  0  0  0  0  0  0  0  0  0  0  0
  -28.8780   -0.5614  -33.6139 C   0  0  0  0  0  0  0  0  0  0  0  0
  -28.4631    1.3801  -35.0469 C   0  0  0  0  0  0  0  0  0  0  0  0
  -27.5945   -0.4219  -33.0854 C   0  0  0  0  0  0  0  0  0  0  0  0
  -27.1868    1.5308  -34.4552 C   0  0  0  0  0  0  0  0  0  0  0  0
  -26.7774    0.6065  -33.5245 C   0  0  0  0  0  0  0  0  0  0  0  0
  -26.9005    5.9361  -34.1440 C   0  0  0  0  0  0  0  0  0  0  0  0
  -26.2931    2.7510  -34.6550 C   0  0  0  0  0  0  0  0  0  0  0  0
  -26.0321    5.0037  -33.4529 C   0  0  0  0  0  0  0  0  0  0  0  0
  -26.1857    6.9518  -34.9107 C   0  0  0  0  0  0  0  0  0  0  0  0
  -24.9331    2.5161  -35.1270 C   0  0  0  0  0  0  0  0  0  0  0  0
  -24.7294    5.4613  -33.0550 C   0  0  0  0  0  0  0  0  0  0  0  0
  -24.7352    7.2304  -34.8224 C   0  0  0  0  0  0  0  0  0  0  0  0
  -24.3192    5.1656  -31.6996 C   0  0  0  0  0  0  0  0  0  0  0  0
  -23.9660    6.3116  -33.8995 C   0  0  0  0  0  0  0  0  0  0  0  0
  -23.2606    4.2437  -31.7163 C   0  0  0  0  0  0  0  0  0  0  0  0
  -22.7854    3.5227  -30.5666 C   0  0  0  0  0  0  0  0  0  0  0  0
  -22.7721    4.1464  -29.3216 C   0  0  0  0  0  0  0  0  0  0  0  0
  -22.2427    2.2011  -30.7164 C   0  0  0  0  0  0  0  0  0  0  0  0
  -22.2657    3.4934  -28.1843 C   0  0  0  0  0  0  0  0  0  0  0  0
  -22.2890    4.1665  -26.9336 C   0  0  0  0  0  0  0  0  0  0  0  0
  -21.7439    1.5331  -29.5836 C   0  0  0  0  0  0  0  0  0  0  0  0
  -21.7470    2.1803  -28.3065 C   0  0  0  0  0  0  0  0  0  0  0  0
  -21.8361    3.4843  -25.7892 C   0  0  0  0  0  0  0  0  0  0  0  0
  -21.2858    1.5168  -27.1377 C   0  0  0  0  0  0  0  0  0  0  0  0
  -21.3123    2.1868  -25.8765 C   0  0  0  0  0  0  0  0  0  0  0  0
  -27.1487   -1.1708  -32.0563 O   0  0  0  0  0  0  0  0  0  0  0  0
  -26.3115    3.6697  -33.3586 O   0  0  0  0  0  0  0  0  0  0  0  0
  -25.5566    0.5352  -32.9978 O   0  0  0  0  0  0  0  0  0  0  0  0
  -24.7223    5.9563  -30.8687 O   0  0  0  0  0  0  0  0  0  0  0  0
  -22.7515    3.9851  -32.7659 O   0  0  0  0  0  0  0  0  0  0  0  0
  -22.1786    1.6113  -31.9338 O   0  0  0  0  0  0  0  0  0  0  0  0
  -21.2376    0.3042  -29.7808 O   0  0  0  0  0  0  0  0  0  0  0  0
  -30.8913    0.1023  -35.2850 S   0  0  0  0  0  0  0  0  0  0  0  0
  1 35  1  0
  2  3  2  0
  2  4  1  0
  2 35  1  0
  3  5  1  0
  4  6  2  0
  5  7  2  0
  5 28  1  0
  6  7  1  0
  6  9  1  0
  7 30  1  0
  8 10  1  0
  8 11  1  0
  9 12  1  0
  9 29  1  0
 10 13  1  0
 10 29  1  0
 11 14  1  0
 13 15  1  0
 13 16  1  0
 14 16  1  0
 15 17  1  0
 15 31  2  0
 17 18  1  0
 17 32  2  0
 18 19  2  0
 18 20  1  0
 19 21  1  0
 20 23  2  0
 20 33  1  0
 21 22  1  0
 21 24  2  0
 22 25  1  0
 23 24  1  0
 23 34  1  0
 24 26  1  0
 25 27  2  0
 26 27  1  0
M  END
$$$$

     RDKit          3D

 36 40  0  0  0  0  0  0  0  0999 V2000
  -30.2701    2.9983  -33.1391 C   0  0  0  0  0  0  0  0  0  0  0  0
  -29.4939    5.4195  -33.3576 C   0  0  0  0  0  0  0  0  0  0  0  0
  -29.0935    3.9227  -33.3551 C   0  0  0  0  0  0  0  0  0  0  0  0
  -29.0850    5.9660  -34.7100 C   0  0  0  0  0  0  0  0  0  0  0  0
  -28.6232    3.6536  -34.8487 C   0  0  0  0  0  0  0  0  0  0  0  0
  -28.4957    7.3461  -34.5020 C   0  0  0  0  0  0  0  0  0  0  0  0
  -27.9668    3.6198  -32.2361 C   0  0  0  0  0  0  0  0  0  0  0  0
  -28.0019    5.0091  -35.1856 C   0  0  0  0  0  0  0  0  0  0  0  0
  -27.7108    2.4225  -35.0826 C   0  0  0  0  0  0  0  0  0  0  0  0
  -27.6488    4.8261  -31.3375 C   0  0  0  0  0  0  0  0  0  0  0  0
  -27.6892    5.2705  -36.6067 C   0  0  0  0  0  0  0  0  0  0  0  0
  -27.2519    1.7763  -33.7935 C   0  0  0  0  0  0  0  0  0  0  0  0
  -26.7841    7.5967  -36.2278 C   0  0  0  0  0  0  0  0  0  0  0  0
  -26.9518    7.8039  -34.8671 C   0  0  0  0  0  0  0  0  0  0  0  0
  -26.6601    2.8498  -32.7947 C   0  0  0  0  0  0  0  0  0  0  0  0
  -26.6305    6.2563  -36.8425 C   0  0  0  0  0  0  0  0  0  0  0  0
  -26.3123    0.6058  -33.8731 C   0  0  0  0  0  0  0  0  0  0  0  0
  -26.1472    0.3958  -32.3426 C   0  0  0  0  0  0  0  0  0  0  0  0
  -25.9593    2.1009  -30.5564 C   0  0  0  0  0  0  0  0  0  0  0  0
  -25.8601    1.8373  -31.8736 C   0  0  0  0  0  0  0  0  0  0  0  0
  -25.6447    3.9499  -33.0291 C   0  0  0  0  0  0  0  0  0  0  0  0
  -25.2944   -0.6181  -31.6529 C   0  0  0  0  0  0  0  0  0  0  0  0
  -24.0608    1.9478  -32.2104 C   0  0  0  0  0  0  0  0  0  0  0  0
  -23.8208   -0.4011  -31.2964 C   0  0  0  0  0  0  0  0  0  0  0  0
  -23.1735    0.6906  -32.0429 C   0  0  0  0  0  0  0  0  0  0  0  0
  -21.7788    0.8774  -31.2927 C   0  0  0  0  0  0  0  0  0  0  0  0
  -21.6782   -1.5787  -30.8690 C   0  0  0  0  0  0  0  0  0  0  0  0
  -20.9714   -2.8430  -30.9072 C   0  0  0  0  0  0  0  0  0  0  0  0
  -20.8790   -0.3573  -31.2568 C   0  0  0  0  0  0  0  0  0  0  0  0
  -19.7279   -4.8260  -31.0433 C   0  0  0  0  0  0  0  0  0  0  0  0
  -19.8400   -3.4742  -30.6607 C   0  0  0  0  0  0  0  0  0  0  0  0
  -18.8548   -2.8863  -29.7840 C   0  0  0  0  0  0  0  0  0  0  0  0
  -28.4964    4.8611  -37.5843 O   0  0  0  0  0  0  0  0  0  0  0  0
  -26.0171   -1.1850  -30.8057 O   0  0  0  0  0  0  0  0  0  0  0  0
  -25.9823    6.2292  -37.9638 O   0  0  0  0  0  0  0  0  0  0  0  0
  -22.9736   -1.6008  -31.5499 O   0  0  0  0  0  0  0  0  0  0  0  0
  1  3  1  0
  2  3  1  0
  2  4  1  0
  3  5  1  0
  3  7  1  0
  4  6  1  0
  4  8  1  0
  5  8  1  0
  5  9  1  0
  6 14  1  0
  7 10  1  0
  7 15  1  0
  8 11  1  0
  9 12  1  0
 11 16  1  0
 11 33  1  0
 12 15  1  0
 12 17  1  0
 13 14  1  0
 13 16  1  0
 15 20  1  0
 15 21  1  0
 16 35  1  0
 17 18  1  0
 18 20  1  0
 18 22  1  0
 19 20  1  0
 22 24  1  0
 22 34  2  0
 23 25  1  0
 24 25  1  0
 24 36  1  0
 25 26  1  0
 26 29  1  0
 27 28  1  0
 27 29  1  0
 27 36  1  0
 28 31  1  0
 30 31  1  0
 31 32  1  0
M  END
$$$$

     RDKit          3D

 29 33  0  0  0  0  0  0  0  0999 V2000
  -31.9107    4.4621  -33.8211 C   0  0  0  0  0  0  0  0  0  0  0  0
  -30.8421    5.4438  -35.8234 C   0  0  0  0  0  0  0  0  0  0  0  0
  -30.5701    3.9990  -33.2743 C   0  0  0  0  0  0  0  0  0  0  0  0
  -29.5950    3.7442  -34.4130 C   0  0  0  0  0  0  0  0  0  0  0  0
  -29.5370    4.7754  -35.5367 C   0  0  0  0  0  0  0  0  0  0  0  0
  -27.7375    2.6691  -33.2814 C   0  0  0  0  0  0  0  0  0  0  0  0
  -26.3334    2.9046  -32.9656 C   0  0  0  0  0  0  0  0  0  0  0  0
  -25.9274    0.4920  -32.3039 C   0  0  0  0  0  0  0  0  0  0  0  0
  -25.8192    4.2069  -33.1148 C   0  0  0  0  0  0  0  0  0  0  0  0
  -25.4638    1.8442  -32.6033 C   0  0  0  0  0  0  0  0  0  0  0  0
  -25.0692   -0.3656  -31.7077 C   0  0  0  0  0  0  0  0  0  0  0  0
  -24.4863    4.5135  -32.8382 C   0  0  0  0  0  0  0  0  0  0  0  0
  -24.1230    2.1956  -32.3666 C   0  0  0  0  0  0  0  0  0  0  0  0
  -23.7021   -0.0156  -31.7561 C   0  0  0  0  0  0  0  0  0  0  0  0
  -23.6423    3.5147  -32.5051 C   0  0  0  0  0  0  0  0  0  0  0  0
  -22.9749   -2.3017  -31.2072 C   0  0  0  0  0  0  0  0  0  0  0  0
  -23.1946    1.1937  -32.0309 C   0  0  0  0  0  0  0  0  0  0  0  0
  -22.6905   -0.9495  -31.4698 C   0  0  0  0  0  0  0  0  0  0  0  0
  -21.8909   -3.1488  -30.9107 C   0  0  0  0  0  0  0  0  0  0  0  0
  -21.3767   -0.4064  -31.3391 C   0  0  0  0  0  0  0  0  0  0  0  0
  -20.5965   -2.6113  -30.8105 C   0  0  0  0  0  0  0  0  0  0  0  0
  -19.5552   -4.7741  -30.9833 C   0  0  0  0  0  0  0  0  0  0  0  0
  -19.4607   -3.4739  -30.4679 C   0  0  0  0  0  0  0  0  0  0  0  0
  -28.3085    1.5869  -33.0933 O   0  0  0  0  0  0  0  0  0  0  0  0
  -31.7001    5.7061  -34.6499 N   0  0  0  0  0  0  0  0  0  0  0  0
  -28.3061    3.7504  -33.8415 N   0  0  0  0  0  0  0  0  0  0  0  0
  -21.9639    1.5657  -31.7869 N   0  0  0  0  0  0  0  0  0  0  0  0
  -20.9912    0.8423  -31.5756 N   0  0  0  0  0  0  0  0  0  0  0  0
  -20.3653   -1.2924  -30.9649 N   0  0  0  0  0  0  0  0  0  0  0  0
  1  3  1  0
  1 25  1  0
  2  5  1  0
  2 25  1  0
  3  4  1  0
  4  5  1  0
  4 26  1  0
  6  7  1  0
  6 24  2  0
  6 26  1  0
  7  9  2  0
  7 10  1  0
  8 10  2  0
  8 11  1  0
  9 12  1  0
 10 13  1  0
 11 14  1  0
 12 15  2  0
 13 15  1  0
 13 17  1  0
 14 17  2  0
 14 18  1  0
 16 18  1  0
 16 19  2  0
 17 27  1  0
 18 20  2  0
 19 21  1  0
 20 28  1  0
 20 29  1  0
 21 23  1  0
 21 29  2  0
 22 23  1  0
 27 28  1  0
M  END
$$$$

     RDKit          3D

 50 51  0  0  0  0  0  0  0  0999 V2000
  -33.0019    0.1697  -34.6548 C   0  0  0  0  0  0  0  0  0  0  0  0
  -32.1006   -0.4165  -35.7015 C   0  0  0  0  0  0  0  0  0  0  0  0
  -31.7439   -0.8485  -37.0031 C   0  0  0  0  0  0  0  0  0  0  0  0
  -31.7090    0.4527  -33.5758 C   0  0  0  0  0  0  0  0  0  0  0  0
  -30.3423    0.9715  -34.1317 C   0  0  0  0  0  0  0  0  0  0  0  0
  -29.9921    2.4469  -33.8035 C   0  0  0  0  0  0  0  0  0  0  0  0
  -29.2384   -1.3128  -33.9401 C   0  0  0  0  0  0  0  0  0  0  0  0
  -29.1965    0.1723  -33.6302 C   0  0  0  0  0  0  0  0  0  0  0  0
  -28.9574    3.0275  -36.9725 C   0  0  0  0  0  0  0  0  0  0  0  0
  -28.5527    2.7808  -34.5905 C   0  0  0  0  0  0  0  0  0  0  0  0
  -27.2046    3.2210  -33.8141 C   0  0  0  0  0  0  0  0  0  0  0  0
  -27.4467    3.6063  -32.3699 C   0  0  0  0  0  0  0  0  0  0  0  0
  -26.3086    4.0776  -34.5537 C   0  0  0  0  0  0  0  0  0  0  0  0
  -25.9359    1.5220  -32.6390 C   0  0  0  0  0  0  0  0  0  0  0  0
  -25.4913    0.2092  -32.2988 C   0  0  0  0  0  0  0  0  0  0  0  0
  -25.2585   -0.6782  -33.5245 C   0  0  0  0  0  0  0  0  0  0  0  0
  -24.9893    4.5682  -34.0975 C   0  0  0  0  0  0  0  0  0  0  0  0
  -24.7996    3.5614  -36.8400 C   0  0  0  0  0  0  0  0  0  0  0  0
  -24.8379    4.7132  -37.6411 C   0  0  0  0  0  0  0  0  0  0  0  0
  -24.4551    0.1075  -31.2579 C   0  0  0  0  0  0  0  0  0  0  0  0
  -23.9070   -1.2490  -30.8611 C   0  0  0  0  0  0  0  0  0  0  0  0
  -23.8149    3.7076  -34.5271 C   0  0  0  0  0  0  0  0  0  0  0  0
  -23.6101    3.5656  -36.0145 C   0  0  0  0  0  0  0  0  0  0  0  0
  -23.3987    5.2976  -37.6133 C   0  0  0  0  0  0  0  0  0  0  0  0
  -22.5331    3.9153  -33.8652 C   0  0  0  0  0  0  0  0  0  0  0  0
  -22.5978    4.5536  -36.5656 C   0  0  0  0  0  0  0  0  0  0  0  0
  -22.4222   -1.2181  -30.7135 C   0  0  0  0  0  0  0  0  0  0  0  0
  -22.4030    3.2462  -32.5171 C   0  0  0  0  0  0  0  0  0  0  0  0
  -22.1651    1.7438  -32.6865 C   0  0  0  0  0  0  0  0  0  0  0  0
  -22.0391    5.0180  -30.2129 C   0  0  0  0  0  0  0  0  0  0  0  0
  -22.0947    5.4957  -35.5051 C   0  0  0  0  0  0  0  0  0  0  0  0
  -21.7911    3.2524  -26.8126 C   0  0  0  0  0  0  0  0  0  0  0  0
  -21.5398   -2.0730  -30.2573 C   0  0  0  0  0  0  0  0  0  0  0  0
  -21.6156    3.9765  -29.3335 C   0  0  0  0  0  0  0  0  0  0  0  0
  -21.4251   -3.3678  -31.0207 C   0  0  0  0  0  0  0  0  0  0  0  0
  -21.3018    2.1676  -27.5666 C   0  0  0  0  0  0  0  0  0  0  0  0
  -20.7657    2.9160  -29.6882 C   0  0  0  0  0  0  0  0  0  0  0  0
  -20.6354    1.9849  -28.5960 C   0  0  0  0  0  0  0  0  0  0  0  0
  -20.3653   -4.5104  -30.8450 C   0  0  0  0  0  0  0  0  0  0  0  0
  -20.2105   -1.4629  -30.0048 C   0  0  0  0  0  0  0  0  0  0  0  0
  -20.2315   -0.1407  -29.6220 C   0  0  0  0  0  0  0  0  0  0  0  0
  -20.2450    3.0512  -31.2395 C   0  0  0  0  0  0  0  0  0  0  0  0
  -28.7488    3.6035  -35.7218 O   0  0  0  0  0  0  0  0  0  0  0  0
  -26.4601   -0.4117  -31.3523 O   0  0  0  0  0  0  0  0  0  0  0  0
  -26.3915    1.9894  -33.8213 O   0  0  0  0  0  0  0  0  0  0  0  0
  -25.7173    2.7824  -36.6697 O   0  0  0  0  0  0  0  0  0  0  0  0
  -24.8935    4.7413  -32.7776 O   0  0  0  0  0  0  0  0  0  0  0  0
  -21.8641    4.9606  -34.2557 O   0  0  0  0  0  0  0  0  0  0  0  0
  -21.1804    3.8275  -31.9391 N   0  0  0  0  0  0  0  0  0  0  0  0
  -26.2740    2.4226  -31.5031 S   0  0  0  0  0  0  0  0  0  0  0  0
  1  2  1  0
  1  4  1  0
  2  3  1  0
  4  5  1  0
  5  6  1  0
  5  8  1  0
  6 10  1  0
  7  8  1  0
  9 43  1  0
 10 11  1  0
 10 43  1  0
 11 12  1  0
 11 13  1  0
 11 45  1  0
 13 17  1  0
 14 15  1  0
 14 45  1  0
 14 50  1  0
 15 16  1  0
 15 20  1  0
 15 44  1  0
 17 22  1  0
 17 47  1  0
 18 19  1  0
 18 23  1  0
 18 46  2  0
 19 24  1  0
 20 21  1  0
 21 27  1  0
 22 23  1  0
 22 25  1  0
 23 26  1  0
 24 26  1  0
 25 28  1  0
 25 48  1  0
 26 31  1  0
 27 33  1  0
 28 29  1  0
 28 49  1  0
 30 34  1  0
 31 48  1  0
 32 36  1  0
 33 35  1  0
 33 40  1  0
 34 37  1  0
 35 39  1  0
 36 38  1  0
 37 38  2  3
 37 42  1  0
 40 41  2  0
 42 49  1  0
M  END
$$$$

     RDKit          3D

 24 26  0  0  0  0  0  0  0  0999 V2000
  -26.8139   -0.6940  -32.5215 C   0  0  0  0  0  0  0  0  0  0  0  0
  -25.8460    1.3713  -32.1137 C   0  0  0  0  0  0  0  0  0  0  0  0
  -25.4515    4.1251  -36.2230 C   0  0  0  0  0  0  0  0  0  0  0  0
  -25.0661    2.7563  -36.1664 C   0  0  0  0  0  0  0  0  0  0  0  0
  -25.0414    5.0325  -35.2974 C   0  0  0  0  0  0  0  0  0  0  0  0
  -24.4606   -0.5902  -31.4741 C   0  0  0  0  0  0  0  0  0  0  0  0
  -24.5143    0.7398  -31.9316 C   0  0  0  0  0  0  0  0  0  0  0  0
  -24.3350    2.3813  -35.0656 C   0  0  0  0  0  0  0  0  0  0  0  0
  -24.3083    4.6841  -34.1697 C   0  0  0  0  0  0  0  0  0  0  0  0
  -23.9962    3.2565  -33.9999 C   0  0  0  0  0  0  0  0  0  0  0  0
  -23.8356    5.6148  -33.1582 C   0  0  0  0  0  0  0  0  0  0  0  0
  -23.2286   -1.2115  -31.3184 C   0  0  0  0  0  0  0  0  0  0  0  0
  -23.3276    1.4419  -32.2933 C   0  0  0  0  0  0  0  0  0  0  0  0
  -23.4044    2.8729  -32.7439 C   0  0  0  0  0  0  0  0  0  0  0  0
  -23.1808    5.1368  -31.9839 C   0  0  0  0  0  0  0  0  0  0  0  0
  -22.0514   -0.4959  -31.5459 C   0  0  0  0  0  0  0  0  0  0  0  0
  -22.0633    0.8438  -32.0516 C   0  0  0  0  0  0  0  0  0  0  0  0
  -26.6880    0.6614  -32.8649 O   0  0  0  0  0  0  0  0  0  0  0  0
  -26.3047    2.2857  -31.4433 O   0  0  0  0  0  0  0  0  0  0  0  0
  -25.5567   -1.2407  -31.1070 O   0  0  0  0  0  0  0  0  0  0  0  0
  -22.6493    5.8986  -31.0305 O   0  0  0  0  0  0  0  0  0  0  0  0
  -20.9661   -1.1276  -31.3000 O   0  0  0  0  0  0  0  0  0  0  0  0
  -23.9955    7.0221  -33.2409 N   0  0  0  0  0  0  0  0  0  0  0  0
  -23.0442    3.7814  -31.8021 N   0  0  0  0  0  0  0  0  0  0  0  0
  1 18  1  0
  2  7  1  0
  2 18  1  0
  2 19  2  0
  3  4  1  0
  3  5  2  0
  4  8  2  0
  5  9  1  0
  6  7  1  0
  6 12  2  0
  6 20  1  0
  7 13  2  0
  8 10  1  0
  9 10  1  0
  9 11  2  0
 10 14  1  0
 11 15  1  0
 11 23  1  0
 12 16  1  0
 13 14  1  0
 13 17  1  0
 14 24  2  0
 15 21  2  0
 15 24  1  0
 16 17  1  0
 16 22  2  0
M  END
$$$$

     RDKit          3D

 24 25  0  0  0  0  0  0  0  0999 V2000
  -29.9274    1.5524  -36.4477 C   0  0  0  0  0  0  0  0  0  0  0  0
  -29.6158    1.7717  -35.1490 C   0  0  0  0  0  0  0  0  0  0  0  0
  -28.4808    2.6750  -33.1762 C   0  0  0  0  0  0  0  0  0  0  0  0
  -28.5993    2.7279  -34.7167 C   0  0  0  0  0  0  0  0  0  0  0  0
  -28.7024    4.0810  -32.5788 C   0  0  0  0  0  0  0  0  0  0  0  0
  -27.5896    5.0569  -32.8458 C   0  0  0  0  0  0  0  0  0  0  0  0
  -27.1570    2.0479  -32.7219 C   0  0  0  0  0  0  0  0  0  0  0  0
  -26.9113    0.6224  -33.0926 C   0  0  0  0  0  0  0  0  0  0  0  0
  -25.9871    2.9766  -32.6497 C   0  0  0  0  0  0  0  0  0  0  0  0
  -26.1520    4.5446  -32.4615 C   0  0  0  0  0  0  0  0  0  0  0  0
  -25.5146    0.2420  -32.8460 C   0  0  0  0  0  0  0  0  0  0  0  0
  -24.7552    0.9574  -31.7739 C   0  0  0  0  0  0  0  0  0  0  0  0
  -24.6671    2.3356  -32.3651 C   0  0  0  0  0  0  0  0  0  0  0  0
  -23.7688   -1.2502  -31.0726 C   0  0  0  0  0  0  0  0  0  0  0  0
  -23.5235    0.1297  -31.5332 C   0  0  0  0  0  0  0  0  0  0  0  0
  -23.6912    2.4506  -33.5198 C   0  0  0  0  0  0  0  0  0  0  0  0
  -22.7659   -1.9400  -30.2870 C   0  0  0  0  0  0  0  0  0  0  0  0
  -22.2218    0.7858  -31.3376 C   0  0  0  0  0  0  0  0  0  0  0  0
  -22.2790    1.7485  -30.0809 C   0  0  0  0  0  0  0  0  0  0  0  0
  -21.9441    1.6312  -32.5721 C   0  0  0  0  0  0  0  0  0  0  0  0
  -21.1299   -0.2937  -31.1052 C   0  0  0  0  0  0  0  0  0  0  0  0
  -29.9393    4.5410  -32.8004 O   0  0  0  0  0  0  0  0  0  0  0  0
  -27.9207    6.3015  -32.3538 O   0  0  0  0  0  0  0  0  0  0  0  0
  -24.8560   -1.7005  -31.2963 O   0  0  0  0  0  0  0  0  0  0  0  0
  1  2  2  0
  2  4  1  0
  3  4  1  0
  3  5  1  0
  3  7  1  0
  5  6  1  0
  5 22  1  0
  6 10  1  0
  6 23  1  0
  7  8  1  0
  7  9  1  0
  8 11  1  0
  9 10  1  0
  9 13  1  0
 11 12  1  0
 12 13  1  0
 12 15  1  0
 13 16  1  0
 14 15  1  0
 14 17  1  0
 14 24  2  0
 15 18  1  0
 18 19  1  0
 18 20  1  0
 18 21  1  0
M  END
$$$$

     RDKit          3D

 34 39  0  0  0  0  0  0  0  0999 V2000
  -31.0501    0.4321  -34.8563 C   0  0  0  0  0  0  0  0  0  0  0  0
  -30.5591    1.4210  -35.7105 C   0  0  0  0  0  0  0  0  0  0  0  0
  -30.1800   -0.2398  -33.9717 C   0  0  0  0  0  0  0  0  0  0  0  0
  -29.2082    1.7716  -35.7125 C   0  0  0  0  0  0  0  0  0  0  0  0
  -28.8762    0.1700  -33.9898 C   0  0  0  0  0  0  0  0  0  0  0  0
  -28.3595    1.1658  -34.8048 C   0  0  0  0  0  0  0  0  0  0  0  0
  -27.9401   -1.2580  -32.1759 C   0  0  0  0  0  0  0  0  0  0  0  0
  -27.8909   -0.2834  -33.1768 C   0  0  0  0  0  0  0  0  0  0  0  0
  -26.8254   -1.5566  -31.4368 C   0  0  0  0  0  0  0  0  0  0  0  0
  -26.7442    0.4502  -33.4599 C   0  0  0  0  0  0  0  0  0  0  0  0
  -26.3448    2.4995  -34.9461 C   0  0  0  0  0  0  0  0  0  0  0  0
  -26.0199    2.6121  -36.2956 C   0  0  0  0  0  0  0  0  0  0  0  0
  -26.0689    3.5516  -34.0643 C   0  0  0  0  0  0  0  0  0  0  0  0
  -25.6268   -0.8811  -31.7176 C   0  0  0  0  0  0  0  0  0  0  0  0
  -25.5465    0.1234  -32.7076 C   0  0  0  0  0  0  0  0  0  0  0  0
  -25.2571    3.6989  -36.7310 C   0  0  0  0  0  0  0  0  0  0  0  0
  -25.2134    4.6158  -34.5345 C   0  0  0  0  0  0  0  0  0  0  0  0
  -24.7768    4.6480  -35.8571 C   0  0  0  0  0  0  0  0  0  0  0  0
  -23.2861   -0.6858  -31.3012 C   0  0  0  0  0  0  0  0  0  0  0  0
  -23.2487    0.4089  -32.2100 C   0  0  0  0  0  0  0  0  0  0  0  0
  -22.0851   -2.6402  -30.6065 C   0  0  0  0  0  0  0  0  0  0  0  0
  -21.9676    1.0513  -32.5399 C   0  0  0  0  0  0  0  0  0  0  0  0
  -21.2159    1.8307  -31.5702 C   0  0  0  0  0  0  0  0  0  0  0  0
  -21.1622    1.8240  -30.1503 C   0  0  0  0  0  0  0  0  0  0  0  0
  -20.5340    2.9944  -32.2318 C   0  0  0  0  0  0  0  0  0  0  0  0
  -20.4452    2.8475  -29.4384 C   0  0  0  0  0  0  0  0  0  0  0  0
  -20.4541    4.1727  -31.5368 C   0  0  0  0  0  0  0  0  0  0  0  0
  -20.3713    4.0681  -30.1338 C   0  0  0  0  0  0  0  0  0  0  0  0
  -21.6612    1.3660  -33.7497 O   0  0  0  0  0  0  0  0  0  0  0  0
  -27.0517    1.3937  -34.4799 N   0  0  0  0  0  0  0  0  0  0  0  0
  -24.4871   -1.2425  -31.0061 N   0  0  0  0  0  0  0  0  0  0  0  0
  -24.3745    0.7396  -32.9055 N   0  0  0  0  0  0  0  0  0  0  0  0
  -22.1652   -1.1900  -30.6391 N   0  0  0  0  0  0  0  0  0  0  0  0
  -25.0879    5.9059  -33.9851 F   0  0  0  0  0  0  0  0  0  0  0  0
  1  2  1  0
  1  3  2  0
  2  4  1  0
  3  5  1  0
  4  6  2  0
  5  6  1  0
  5  8  2  0
  6 30  1  0
  7  8  1  0
  7  9  2  0
  8 10  1  0
  9 14  1  0
 10 15  1  0
 10 30  1  0
 11 12  1  0
 11 13  2  0
 11 30  1  0
 12 16  1  0
 13 17  1  0
 14 15  1  0
 14 31  1  0
 15 32  2  0
 16 18  2  0
 17 18  1  0
 17 34  1  0
 19 20  1  0
 19 31  2  0
 19 33  1  0
 20 22  1  0
 20 32  1  0
 21 33  1  0
 22 23  1  0
 22 29  1  0
 23 24  2  0
 23 25  1  0
 24 26  1  0
 25 27  1  0
 26 28  1  0
 27 28  2  0
M  END
$$$$

     RDKit          3D

 28 29  0  0  0  0  0  0  0  0999 V2000
  -29.4293    7.8481  -33.4029 C   0  0  0  0  0  0  0  0  0  0  0  0
  -28.7072    4.2264  -33.2801 C   0  0  0  0  0  0  0  0  0  0  0  0
  -28.9361    5.4926  -33.8272 C   0  0  0  0  0  0  0  0  0  0  0  0
  -28.8292    6.7059  -31.6288 C   0  0  0  0  0  0  0  0  0  0  0  0
  -28.4347    6.7303  -33.0918 C   0  0  0  0  0  0  0  0  0  0  0  0
  -27.3559    3.8584  -32.8064 C   0  0  0  0  0  0  0  0  0  0  0  0
  -27.1904    2.3996  -33.2230 C   0  0  0  0  0  0  0  0  0  0  0  0
  -26.9498    7.0845  -33.2120 C   0  0  0  0  0  0  0  0  0  0  0  0
  -26.2647    4.6500  -33.5601 C   0  0  0  0  0  0  0  0  0  0  0  0
  -26.4135    7.7559  -34.4610 C   0  0  0  0  0  0  0  0  0  0  0  0
  -25.9706    5.9553  -32.8256 C   0  0  0  0  0  0  0  0  0  0  0  0
  -25.7275    2.1973  -33.2784 C   0  0  0  0  0  0  0  0  0  0  0  0
  -25.9118    9.2098  -34.2001 C   0  0  0  0  0  0  0  0  0  0  0  0
  -25.6962   -0.6911  -32.1188 C   0  0  0  0  0  0  0  0  0  0  0  0
  -25.4633    1.5697  -34.7516 C   0  0  0  0  0  0  0  0  0  0  0  0
  -25.0413    3.5726  -33.5671 C   0  0  0  0  0  0  0  0  0  0  0  0
  -24.8674    0.6583  -33.8901 C   0  0  0  0  0  0  0  0  0  0  0  0
  -24.6247    3.2318  -35.0361 C   0  0  0  0  0  0  0  0  0  0  0  0
  -23.2519   -1.0337  -31.0068 C   0  0  0  0  0  0  0  0  0  0  0  0
  -23.4112    0.1989  -31.9809 C   0  0  0  0  0  0  0  0  0  0  0  0
  -22.0007   -1.4564  -31.0461 C   0  0  0  0  0  0  0  0  0  0  0  0
  -21.4398   -2.6116  -30.9463 C   0  0  0  0  0  0  0  0  0  0  0  0
  -20.0073   -5.2928  -31.3040 C   0  0  0  0  0  0  0  0  0  0  0  0
  -20.0760   -2.7827  -30.6704 C   0  0  0  0  0  0  0  0  0  0  0  0
  -19.4525   -4.0309  -30.7034 C   0  0  0  0  0  0  0  0  0  0  0  0
  -27.2365    3.8452  -31.3550 O   0  0  0  0  0  0  0  0  0  0  0  0
  -24.7194    0.2243  -32.5538 N   0  0  0  0  0  0  0  0  0  0  0  0
  -18.8457   -1.4682  -30.6811 S   0  0  0  0  0  0  0  0  0  0  0  0
  1  5  1  0
  2  3  1  0
  2  6  1  0
  3  5  1  0
  4  5  1  0
  5  8  1  0
  6  7  1  0
  6  9  1  0
  6 26  1  0
  7 12  1  0
  8 10  1  0
  8 11  1  0
  9 11  1  0
  9 16  1  0
 10 13  1  0
 12 15  1  0
 12 16  1  0
 14 27  1  0
 15 17  1  0
 16 18  1  0
 17 27  1  0
 19 20  1  0
 19 21  1  0
 20 27  1  0
 21 22  2  3
 22 24  1  0
 23 25  1  0
 24 25  1  0
 24 28  1  0
M  END
$$$$

     RDKit          3D

 23 25  0  0  0  0  0  0  0  0999 V2000
  -26.4623    4.1544  -30.8079 C   0  0  0  0  0  0  0  0  0  0  0  0
  -26.0828   -0.5507  -33.4537 C   0  0  0  0  0  0  0  0  0  0  0  0
  -25.9374    0.7186  -32.8014 C   0  0  0  0  0  0  0  0  0  0  0  0
  -25.6017    1.8110  -35.0776 C   0  0  0  0  0  0  0  0  0  0  0  0
  -25.6445    1.8893  -33.6666 C   0  0  0  0  0  0  0  0  0  0  0  0
  -25.4713    3.0986  -37.2762 C   0  0  0  0  0  0  0  0  0  0  0  0
  -25.6603    3.1333  -33.0074 C   0  0  0  0  0  0  0  0  0  0  0  0
  -25.4114    0.5765  -31.3643 C   0  0  0  0  0  0  0  0  0  0  0  0
  -25.4561    1.9121  -30.7104 C   0  0  0  0  0  0  0  0  0  0  0  0
  -25.3696    2.9899  -35.8106 C   0  0  0  0  0  0  0  0  0  0  0  0
  -25.4245    3.2176  -31.4919 C   0  0  0  0  0  0  0  0  0  0  0  0
  -25.2231    4.2536  -33.7348 C   0  0  0  0  0  0  0  0  0  0  0  0
  -25.1060    4.2153  -35.0988 C   0  0  0  0  0  0  0  0  0  0  0  0
  -24.6753    5.5285  -35.6115 C   0  0  0  0  0  0  0  0  0  0  0  0
  -24.5413    6.2865  -34.4848 C   0  0  0  0  0  0  0  0  0  0  0  0
  -24.1001   -0.0894  -31.2825 C   0  0  0  0  0  0  0  0  0  0  0  0
  -23.9474   -1.4814  -31.1175 C   0  0  0  0  0  0  0  0  0  0  0  0
  -23.1038    0.6192  -32.0455 C   0  0  0  0  0  0  0  0  0  0  0  0
  -22.6281   -2.0421  -30.9788 C   0  0  0  0  0  0  0  0  0  0  0  0
  -21.7620   -0.0342  -31.7736 C   0  0  0  0  0  0  0  0  0  0  0  0
  -21.4472   -1.3706  -31.2735 C   0  0  0  0  0  0  0  0  0  0  0  0
  -20.0337   -1.5348  -30.7788 C   0  0  0  0  0  0  0  0  0  0  0  0
  -19.1711   -0.2962  -30.7984 C   0  0  0  0  0  0  0  0  0  0  0  0
  1 11  1  0
  2  3  1  0
  3  5  1  0
  3  8  1  0
  4  5  1  0
  4 10  2  0
  5  7  2  0
  6 10  1  0
  7 11  1  0
  7 12  1  0
  8  9  1  0
  8 16  1  0
  9 11  1  0
 10 13  1  0
 12 13  2  0
 13 14  1  0
 14 15  1  0
 16 17  1  0
 16 18  1  0
 17 19  2  0
 18 20  1  0
 19 21  1  0
 20 21  2  0
 21 22  1  0
 22 23  1  0
M  END
$$$$

     RDKit          3D

 33 36  0  0  0  0  0  0  0  0999 V2000
  -32.1606    0.4563  -34.7168 C   0  0  0  0  0  0  0  0  0  0  0  0
  -32.1426    2.9465  -34.3228 C   0  0  0  0  0  0  0  0  0  0  0  0
  -31.4169    0.6677  -35.9884 C   0  0  0  0  0  0  0  0  0  0  0  0
  -31.0842   -0.0584  -33.7652 C   0  0  0  0  0  0  0  0  0  0  0  0
  -29.9146   -0.6124  -34.4972 C   0  0  0  0  0  0  0  0  0  0  0  0
  -28.6102   -0.6332  -33.7959 C   0  0  0  0  0  0  0  0  0  0  0  0
  -28.4408   -1.2155  -32.5070 C   0  0  0  0  0  0  0  0  0  0  0  0
  -28.1054    6.0569  -30.6058 C   0  0  0  0  0  0  0  0  0  0  0  0
  -27.8541    7.2841  -30.0664 C   0  0  0  0  0  0  0  0  0  0  0  0
  -27.4814   -0.0926  -34.4237 C   0  0  0  0  0  0  0  0  0  0  0  0
  -27.3140    3.8031  -31.3110 C   0  0  0  0  0  0  0  0  0  0  0  0
  -27.1566   -1.1649  -31.8550 C   0  0  0  0  0  0  0  0  0  0  0  0
  -27.0765    5.1001  -30.6916 C   0  0  0  0  0  0  0  0  0  0  0  0
  -26.5889    7.6201  -29.5703 C   0  0  0  0  0  0  0  0  0  0  0  0
  -26.2335   -0.0955  -33.8087 C   0  0  0  0  0  0  0  0  0  0  0  0
  -26.2774    2.8382  -31.3856 C   0  0  0  0  0  0  0  0  0  0  0  0
  -26.0652   -0.5497  -32.4968 C   0  0  0  0  0  0  0  0  0  0  0  0
  -25.7784    5.4307  -30.2128 C   0  0  0  0  0  0  0  0  0  0  0  0
  -25.5593    6.6931  -29.6365 C   0  0  0  0  0  0  0  0  0  0  0  0
  -24.9943    3.1288  -30.8406 C   0  0  0  0  0  0  0  0  0  0  0  0
  -24.6919    4.4475  -30.3584 C   0  0  0  0  0  0  0  0  0  0  0  0
  -24.4132    0.4969  -30.7015 C   0  0  0  0  0  0  0  0  0  0  0  0
  -23.9104   -1.4536  -32.0113 C   0  0  0  0  0  0  0  0  0  0  0  0
  -22.8173   -1.5010  -31.3383 C   0  0  0  0  0  0  0  0  0  0  0  0
  -22.6800    2.4171  -29.8945 C   0  0  0  0  0  0  0  0  0  0  0  0
  -22.2967    3.8776  -30.2451 C   0  0  0  0  0  0  0  0  0  0  0  0
  -22.0325   -2.6241  -30.9358 C   0  0  0  0  0  0  0  0  0  0  0  0
  -30.0789    0.2031  -35.4648 O   0  0  0  0  0  0  0  0  0  0  0  0
  -32.7813    1.6675  -34.2374 N   0  0  0  0  0  0  0  0  0  0  0  0
  -24.7832   -0.3985  -31.8945 N   0  0  0  0  0  0  0  0  0  0  0  0
  -23.3895    4.8427  -30.1099 N   0  0  0  0  0  0  0  0  0  0  0  0
  -22.7147   -3.1855  -29.8911 N   0  0  0  0  0  0  0  0  0  0  0  0
  -23.8540    1.9905  -30.9457 S   0  0  0  0  0  0  0  0  0  0  0  0
  1  3  1  0
  1  4  1  0
  1 29  1  0
  2 29  1  0
  3 28  1  0
  4  5  1  0
  5  6  1  0
  5 28  1  0
  6  7  2  0
  6 10  1  0
  7 12  1  0
  8  9  2  0
  8 13  1  0
  9 14  1  0
 10 15  2  0
 11 13  1  0
 11 16  2  0
 12 17  2  0
 13 18  2  0
 14 19  2  0
 15 17  1  0
 16 20  1  0
 17 30  1  0
 18 19  1  0
 18 21  1  0
 20 21  1  0
 20 33  1  0
 21 31  2  3
 22 30  1  0
 22 33  1  0
 23 24  1  0
 23 30  1  0
 24 27  1  0
 25 26  1  0
 26 31  1  0
 27 32  1  0
M  END
$$$$

     RDKit          3D

 30 33  0  0  0  0  0  0  0  0999 V2000
  -29.7676    0.4438  -35.1286 C   0  0  0  0  0  0  0  0  0  0  0  0
  -29.8490    1.3893  -36.2502 C   0  0  0  0  0  0  0  0  0  0  0  0
  -28.1665   -0.5103  -33.5827 C   0  0  0  0  0  0  0  0  0  0  0  0
  -26.7611   -0.3701  -32.8947 C   0  0  0  0  0  0  0  0  0  0  0  0
  -26.4629   -1.2067  -31.7909 C   0  0  0  0  0  0  0  0  0  0  0  0
  -25.6918    0.4558  -33.3794 C   0  0  0  0  0  0  0  0  0  0  0  0
  -24.3854    0.4180  -32.7049 C   0  0  0  0  0  0  0  0  0  0  0  0
  -24.3560    3.8751  -32.4830 C   0  0  0  0  0  0  0  0  0  0  0  0
  -24.2032   -0.4771  -31.6143 C   0  0  0  0  0  0  0  0  0  0  0  0
  -23.7340    3.4773  -33.8180 C   0  0  0  0  0  0  0  0  0  0  0  0
  -23.7046    4.4477  -34.8395 C   0  0  0  0  0  0  0  0  0  0  0  0
  -23.2064    1.2023  -32.9803 C   0  0  0  0  0  0  0  0  0  0  0  0
  -23.2426    2.1838  -34.0601 C   0  0  0  0  0  0  0  0  0  0  0  0
  -23.1992    3.4413  -30.3084 C   0  0  0  0  0  0  0  0  0  0  0  0
  -23.1829    4.0842  -36.0860 C   0  0  0  0  0  0  0  0  0  0  0  0
  -22.7403    1.7927  -35.3019 C   0  0  0  0  0  0  0  0  0  0  0  0
  -22.7312    2.7758  -36.3230 C   0  0  0  0  0  0  0  0  0  0  0  0
  -22.6175    5.3266  -31.6880 C   0  0  0  0  0  0  0  0  0  0  0  0
  -21.9777    1.0613  -32.3439 C   0  0  0  0  0  0  0  0  0  0  0  0
  -21.8849    0.0870  -31.3472 C   0  0  0  0  0  0  0  0  0  0  0  0
  -21.8650    2.6985  -28.3539 C   0  0  0  0  0  0  0  0  0  0  0  0
  -21.9232    3.4694  -29.6321 C   0  0  0  0  0  0  0  0  0  0  0  0
  -21.4543    5.5684  -30.8871 C   0  0  0  0  0  0  0  0  0  0  0  0
  -21.0370    4.5778  -29.9068 C   0  0  0  0  0  0  0  0  0  0  0  0
  -28.9483   -1.4392  -33.3511 O   0  0  0  0  0  0  0  0  0  0  0  0
  -20.7867   -0.2397  -30.9238 O   0  0  0  0  0  0  0  0  0  0  0  0
  -28.5009    0.4535  -34.4401 N   0  0  0  0  0  0  0  0  0  0  0  0
  -25.2359   -1.2639  -31.2294 N   0  0  0  0  0  0  0  0  0  0  0  0
  -23.2967    4.1676  -31.5186 N   0  0  0  0  0  0  0  0  0  0  0  0
  -22.9696   -0.6400  -31.0181 N   0  0  0  0  0  0  0  0  0  0  0  0
  1  2  1  0
  1 27  1  0
  3  4  1  0
  3 25  2  0
  3 27  1  0
  4  5  1  0
  4  6  2  0
  5 28  2  0
  6  7  1  0
  7  9  1  0
  7 12  1  0
  8 10  1  0
  8 29  1  0
  9 28  1  0
  9 30  2  0
 10 11  1  0
 10 13  1  0
 11 15  2  0
 12 13  1  0
 12 19  2  0
 13 16  2  0
 14 22  1  0
 14 29  1  0
 15 17  1  0
 16 17  1  0
 18 23  2  0
 18 29  1  0
 19 20  1  0
 20 26  2  0
 20 30  1  0
 21 22  1  0
 22 24  1  0
 23 24  1  0
M  END
$$$$

     RDKit          3D

 33 37  0  0  0  0  0  0  0  0999 V2000
  -29.9132   -0.5682  -34.7636 C   0  0  0  0  0  0  0  0  0  0  0  0
  -28.5549   -1.1309  -33.8594 C   0  0  0  0  0  0  0  0  0  0  0  0
  -27.2125    0.7772  -32.7956 C   0  0  0  0  0  0  0  0  0  0  0  0
  -27.1074    2.1890  -32.9293 C   0  0  0  0  0  0  0  0  0  0  0  0
  -26.1330   -0.0220  -32.3104 C   0  0  0  0  0  0  0  0  0  0  0  0
  -25.8979    2.8599  -32.5988 C   0  0  0  0  0  0  0  0  0  0  0  0
  -24.8896    0.6475  -31.9942 C   0  0  0  0  0  0  0  0  0  0  0  0
  -24.7306    2.1012  -32.1923 C   0  0  0  0  0  0  0  0  0  0  0  0
  -23.7941   -1.5224  -31.0457 C   0  0  0  0  0  0  0  0  0  0  0  0
  -23.7051   -0.1457  -31.4747 C   0  0  0  0  0  0  0  0  0  0  0  0
  -23.4809    2.7830  -31.9175 C   0  0  0  0  0  0  0  0  0  0  0  0
  -23.2286    4.9750  -30.7346 C   0  0  0  0  0  0  0  0  0  0  0  0
  -23.0308    4.6692  -34.4697 C   0  0  0  0  0  0  0  0  0  0  0  0
  -23.0214    5.0148  -33.0649 C   0  0  0  0  0  0  0  0  0  0  0  0
  -22.9873    6.4101  -31.1505 C   0  0  0  0  0  0  0  0  0  0  0  0
  -22.7091    5.7060  -35.3893 C   0  0  0  0  0  0  0  0  0  0  0  0
  -22.8127    6.3527  -32.6044 C   0  0  0  0  0  0  0  0  0  0  0  0
  -22.6825   -2.1975  -30.4405 C   0  0  0  0  0  0  0  0  0  0  0  0
  -22.4612    0.5714  -31.3329 C   0  0  0  0  0  0  0  0  0  0  0  0
  -22.3852    7.0197  -34.9360 C   0  0  0  0  0  0  0  0  0  0  0  0
  -22.4136    7.3733  -33.5407 C   0  0  0  0  0  0  0  0  0  0  0  0
  -21.4197   -1.4920  -30.3694 C   0  0  0  0  0  0  0  0  0  0  0  0
  -21.3018   -0.1291  -30.8428 C   0  0  0  0  0  0  0  0  0  0  0  0
  -19.7820   -3.3458  -30.5716 C   0  0  0  0  0  0  0  0  0  0  0  0
  -19.8291   -1.8480  -28.4925 C   0  0  0  0  0  0  0  0  0  0  0  0
  -18.2941   -2.0053  -28.4498 C   0  0  0  0  0  0  0  0  0  0  0  0
  -26.3306   -1.2512  -32.0620 O   0  0  0  0  0  0  0  0  0  0  0  0
  -22.8372   -3.4379  -29.8648 O   0  0  0  0  0  0  0  0  0  0  0  0
  -17.7664   -2.1528  -27.2298 O   0  0  0  0  0  0  0  0  0  0  0  0
  -28.4132    0.1555  -33.1751 N   0  0  0  0  0  0  0  0  0  0  0  0
  -23.2850    4.1875  -31.9584 N   0  0  0  0  0  0  0  0  0  0  0  0
  -22.3521    1.9726  -31.6883 N   0  0  0  0  0  0  0  0  0  0  0  0
  -20.2709   -2.1347  -29.8383 N   0  0  0  0  0  0  0  0  0  0  0  0
  1  2  1  0
  2 30  1  0
  3  4  2  0
  3  5  1  0
  3 30  1  0
  4  6  1  0
  5  7  1  0
  5 27  2  0
  6  8  1  0
  7  8  2  0
  7 10  1  0
  8 11  1  0
  9 10  2  0
  9 18  1  0
 10 19  1  0
 11 31  1  0
 11 32  2  0
 12 15  1  0
 12 31  1  0
 13 14  1  0
 13 16  1  0
 14 17  2  0
 14 31  1  0
 15 17  1  0
 16 20  2  0
 17 21  1  0
 18 22  2  0
 18 28  1  0
 19 23  2  0
 19 32  1  0
 20 21  1  0
 22 23  1  0
 22 33  1  0
 24 33  1  0
 25 26  1  0
 25 33  1  0
 26 29  1  0
M  END
$$$$

     RDKit          3D

 28 31  0  0  0  0  0  0  0  0999 V2000
  -31.4361    0.5746  -37.2738 C   0  0  0  0  0  0  0  0  0  0  0  0
  -30.6277    0.1412  -34.2588 C   0  0  0  0  0  0  0  0  0  0  0  0
  -29.6189   -0.2771  -33.3192 C   0  0  0  0  0  0  0  0  0  0  0  0
  -29.2367    2.3973  -37.2927 C   0  0  0  0  0  0  0  0  0  0  0  0
  -28.4357    0.4580  -33.4541 C   0  0  0  0  0  0  0  0  0  0  0  0
  -26.2818    0.6212  -32.6563 C   0  0  0  0  0  0  0  0  0  0  0  0
  -25.1102   -1.1211  -31.3382 C   0  0  0  0  0  0  0  0  0  0  0  0
  -25.1555    0.1526  -31.9269 C   0  0  0  0  0  0  0  0  0  0  0  0
  -24.8899    3.2781  -31.2477 C   0  0  0  0  0  0  0  0  0  0  0  0
  -24.7259    4.6785  -31.3371 C   0  0  0  0  0  0  0  0  0  0  0  0
  -24.0257    0.9306  -31.9266 C   0  0  0  0  0  0  0  0  0  0  0  0
  -24.0512    2.4098  -31.9983 C   0  0  0  0  0  0  0  0  0  0  0  0
  -23.8635   -1.6431  -30.9293 C   0  0  0  0  0  0  0  0  0  0  0  0
  -23.6953    5.2025  -32.1086 C   0  0  0  0  0  0  0  0  0  0  0  0
  -23.0890    2.9682  -32.8178 C   0  0  0  0  0  0  0  0  0  0  0  0
  -22.8990    4.3341  -32.8488 C   0  0  0  0  0  0  0  0  0  0  0  0
  -22.6833   -0.9078  -31.1753 C   0  0  0  0  0  0  0  0  0  0  0  0
  -21.3771   -1.5117  -30.8906 C   0  0  0  0  0  0  0  0  0  0  0  0
  -19.7092   -2.9368  -30.3401 C   0  0  0  0  0  0  0  0  0  0  0  0
  -19.0569   -1.5962  -30.6374 C   0  0  0  0  0  0  0  0  0  0  0  0
  -31.4778    2.8136  -36.2562 O   0  0  0  0  0  0  0  0  0  0  0  0
  -30.0484    1.0951  -35.0903 N   0  0  0  0  0  0  0  0  0  0  0  0
  -27.3206   -0.0969  -32.8158 N   0  0  0  0  0  0  0  0  0  0  0  0
  -22.8053    0.3518  -31.6192 N   0  0  0  0  0  0  0  0  0  0  0  0
  -21.1594   -2.6516  -30.3481 N   0  0  0  0  0  0  0  0  0  0  0  0
  -20.2685   -0.8379  -31.0893 N   0  0  0  0  0  0  0  0  0  0  0  0
  -30.6028    1.6967  -36.4386 S   0  0  0  0  0  0  0  0  0  0  0  0
  -28.4459    1.5670  -34.6315 S   0  0  0  0  0  0  0  0  0  0  0  0
  1 27  1  0
  2  3  1  0
  2 22  1  0
  3  5  1  0
  4 27  1  0
  5 23  1  0
  5 28  1  0
  6  8  1  0
  6 23  2  3
  7  8  2  0
  7 13  1  0
  8 11  1  0
  9 10  2  0
  9 12  1  0
 10 14  1  0
 11 12  1  0
 11 24  2  0
 12 15  2  0
 13 17  1  0
 14 16  2  0
 15 16  1  0
 17 18  2  3
 17 24  1  0
 18 25  1  0
 18 26  1  0
 19 20  1  0
 19 25  1  0
 20 26  1  0
 21 27  1  0
 22 27  1  0
 22 28  1  0
M  END
$$$$

     RDKit          3D

 53 59  0  0  0  0  0  0  0  0999 V2000
  -31.8013    0.7346  -34.0384 C   0  0  0  0  0  0  0  0  0  0  0  0
  -31.3694    2.0735  -33.9028 C   0  0  0  0  0  0  0  0  0  0  0  0
  -30.8933   -0.3110  -34.0057 C   0  0  0  0  0  0  0  0  0  0  0  0
  -29.9910    2.3154  -33.7092 C   0  0  0  0  0  0  0  0  0  0  0  0
  -29.5681   -0.0753  -33.7785 C   0  0  0  0  0  0  0  0  0  0  0  0
  -29.6870    4.6762  -34.4932 C   0  0  0  0  0  0  0  0  0  0  0  0
  -29.0769    1.2212  -33.6564 C   0  0  0  0  0  0  0  0  0  0  0  0
  -28.7181    4.7117  -35.6535 C   0  0  0  0  0  0  0  0  0  0  0  0
  -28.0893    3.5641  -32.9877 C   0  0  0  0  0  0  0  0  0  0  0  0
  -27.6674    1.3142  -33.5363 C   0  0  0  0  0  0  0  0  0  0  0  0
  -27.4208    4.8500  -32.7203 C   0  0  0  0  0  0  0  0  0  0  0  0
  -25.9506    2.6072  -35.5659 C   0  0  0  0  0  0  0  0  0  0  0  0
  -25.5935    3.4592  -36.5969 C   0  0  0  0  0  0  0  0  0  0  0  0
  -25.4112    0.5999  -34.0702 C   0  0  0  0  0  0  0  0  0  0  0  0
  -25.0585    0.8183  -32.6096 C   0  0  0  0  0  0  0  0  0  0  0  0
  -24.9991    1.6594  -35.0686 C   0  0  0  0  0  0  0  0  0  0  0  0
  -24.8686   -0.3943  -31.8072 C   0  0  0  0  0  0  0  0  0  0  0  0
  -24.3406    3.2907  -37.2184 C   0  0  0  0  0  0  0  0  0  0  0  0
  -24.2027    2.8715  -31.7227 C   0  0  0  0  0  0  0  0  0  0  0  0
  -24.1548    4.0872  -38.4568 C   0  0  0  0  0  0  0  0  0  0  0  0
  -23.7566    1.5047  -35.7057 C   0  0  0  0  0  0  0  0  0  0  0  0
  -23.8010    1.6857  -32.4720 C   0  0  0  0  0  0  0  0  0  0  0  0
  -23.4095    2.3637  -36.7254 C   0  0  0  0  0  0  0  0  0  0  0  0
  -23.0991    5.4711  -27.8692 C   0  0  0  0  0  0  0  0  0  0  0  0
  -22.7272    0.8061  -32.0837 C   0  0  0  0  0  0  0  0  0  0  0  0
  -22.8740    3.3065  -29.2771 C   0  0  0  0  0  0  0  0  0  0  0  0
  -22.8655    4.5770  -32.8429 C   0  0  0  0  0  0  0  0  0  0  0  0
  -22.8660    6.1584  -26.6626 C   0  0  0  0  0  0  0  0  0  0  0  0
  -22.4492    3.9618  -30.5288 C   0  0  0  0  0  0  0  0  0  0  0  0
  -22.5764    4.1776  -28.0454 C   0  0  0  0  0  0  0  0  0  0  0  0
  -22.1535    5.5641  -25.6109 C   0  0  0  0  0  0  0  0  0  0  0  0
  -21.8612    3.5975  -26.9778 C   0  0  0  0  0  0  0  0  0  0  0  0
  -21.4682   -0.8448  -30.4441 C   0  0  0  0  0  0  0  0  0  0  0  0
  -21.6286    4.2871  -25.8014 C   0  0  0  0  0  0  0  0  0  0  0  0
  -21.5167    5.1750  -32.5533 C   0  0  0  0  0  0  0  0  0  0  0  0
  -21.2932    4.7824  -30.8039 C   0  0  0  0  0  0  0  0  0  0  0  0
  -20.8567    0.2181  -31.0945 C   0  0  0  0  0  0  0  0  0  0  0  0
  -20.7566    3.7093  -24.4640 C   0  0  0  0  0  0  0  0  0  0  0  0
  -20.6740   -1.2883  -29.3682 C   0  0  0  0  0  0  0  0  0  0  0  0
  -19.7545    0.7831  -30.5292 C   0  0  0  0  0  0  0  0  0  0  0  0
  -19.5082   -0.6038  -29.0299 C   0  0  0  0  0  0  0  0  0  0  0  0
  -29.8353    5.8176  -33.8613 O   0  0  0  0  0  0  0  0  0  0  0  0
  -27.2117    2.5408  -33.3288 O   0  0  0  0  0  0  0  0  0  0  0  0
  -26.8368    0.4816  -34.1139 O   0  0  0  0  0  0  0  0  0  0  0  0
  -25.6044   -0.6679  -30.8320 O   0  0  0  0  0  0  0  0  0  0  0  0
  -25.2326    3.1224  -31.1559 O   0  0  0  0  0  0  0  0  0  0  0  0
  -22.5988   -1.4236  -30.9162 O   0  0  0  0  0  0  0  0  0  0  0  0
  -21.5092    1.0159  -32.0835 O   0  0  0  0  0  0  0  0  0  0  0  0
  -20.7293    4.6150  -31.8801 O   0  0  0  0  0  0  0  0  0  0  0  0
  -29.4308    3.5970  -33.5435 N   0  0  0  0  0  0  0  0  0  0  0  0
  -23.3437   -0.3904  -31.6158 N   0  0  0  0  0  0  0  0  0  0  0  0
  -23.2100    3.7752  -31.6711 N   0  0  0  0  0  0  0  0  0  0  0  0
  -28.6768   -1.4874  -33.7170 Cl  0  0  0  0  0  0  0  0  0  0  0  0
  1  2  2  0
  1  3  1  0
  2  4  1  0
  3  5  2  0
  4  7  2  0
  4 50  1  0
  5  7  1  0
  5 53  1  0
  6  8  1  0
  6 42  1  0
  6 50  1  0
  7 10  1  0
  9 11  1  0
  9 43  1  0
  9 50  1  0
 10 43  1  0
 10 44  1  0
 12 13  2  0
 12 16  1  0
 13 18  1  0
 14 15  1  0
 14 16  1  0
 14 44  1  0
 15 17  1  0
 15 22  1  0
 16 21  1  0
 17 45  1  0
 17 51  1  0
 18 20  1  0
 18 23  1  0
 19 22  1  0
 19 46  2  0
 19 52  1  0
 21 23  2  0
 22 25  1  0
 24 28  2  0
 24 30  1  0
 25 48  1  0
 25 51  1  0
 26 29  1  0
 26 30  1  0
 27 35  1  0
 27 52  1  0
 28 31  1  0
 29 36  1  0
 29 52  1  0
 30 32  2  0
 31 34  2  0
 32 34  1  0
 33 37  1  0
 33 39  2  3
 33 47  1  0
 34 38  1  0
 35 49  1  0
 36 49  1  0
 37 40  2  0
 37 48  1  0
 39 41  1  0
 47 51  1  0
M  END
$$$$

     RDKit          3D

 50 56  0  0  0  0  0  0  0  0999 V2000
  -31.9551   -1.1715  -37.0551 C   0  0  0  0  0  0  0  0  0  0  0  0
  -31.6638    0.1883  -36.7606 C   0  0  0  0  0  0  0  0  0  0  0  0
  -31.2732   -2.1691  -36.3503 C   0  0  0  0  0  0  0  0  0  0  0  0
  -30.6421    0.5651  -35.8645 C   0  0  0  0  0  0  0  0  0  0  0  0
  -30.2958   -1.8089  -35.4088 C   0  0  0  0  0  0  0  0  0  0  0  0
  -29.9903   -0.4540  -35.1465 C   0  0  0  0  0  0  0  0  0  0  0  0
  -29.5001   -2.8043  -34.7029 C   0  0  0  0  0  0  0  0  0  0  0  0
  -29.3582    1.0089  -33.3519 C   0  0  0  0  0  0  0  0  0  0  0  0
  -29.2726    2.7091  -35.2267 C   0  0  0  0  0  0  0  0  0  0  0  0
  -29.0281    2.3902  -33.7531 C   0  0  0  0  0  0  0  0  0  0  0  0
  -28.0523    2.6365  -36.1064 C   0  0  0  0  0  0  0  0  0  0  0  0
  -27.8497    3.1019  -33.1443 C   0  0  0  0  0  0  0  0  0  0  0  0
  -25.7344    2.6784  -35.3591 C   0  0  0  0  0  0  0  0  0  0  0  0
  -25.5705    2.6687  -32.5979 C   0  0  0  0  0  0  0  0  0  0  0  0
  -24.9778    2.4939  -34.0297 C   0  0  0  0  0  0  0  0  0  0  0  0
  -24.8193    1.7612  -31.6070 C   0  0  0  0  0  0  0  0  0  0  0  0
  -24.7049    0.0377  -34.6777 C   0  0  0  0  0  0  0  0  0  0  0  0
  -24.1007    1.2235  -33.9325 C   0  0  0  0  0  0  0  0  0  0  0  0
  -23.9794    2.3727  -30.4265 C   0  0  0  0  0  0  0  0  0  0  0  0
  -23.8715    0.7960  -32.4115 C   0  0  0  0  0  0  0  0  0  0  0  0
  -23.2460    3.6802  -30.5294 C   0  0  0  0  0  0  0  0  0  0  0  0
  -22.7117    1.6026  -34.5250 C   0  0  0  0  0  0  0  0  0  0  0  0
  -22.7141    4.0969  -29.1463 C   0  0  0  0  0  0  0  0  0  0  0  0
  -22.5568   -1.9927  -30.9607 C   0  0  0  0  0  0  0  0  0  0  0  0
  -22.5401    5.6764  -29.1720 C   0  0  0  0  0  0  0  0  0  0  0  0
  -22.3768    1.1416  -31.5507 C   0  0  0  0  0  0  0  0  0  0  0  0
  -22.0850    3.6649  -31.4666 C   0  0  0  0  0  0  0  0  0  0  0  0
  -21.7845    2.3646  -32.1687 C   0  0  0  0  0  0  0  0  0  0  0  0
  -21.8692    2.5342  -33.6796 C   0  0  0  0  0  0  0  0  0  0  0  0
  -21.2767   -1.2544  -30.5627 C   0  0  0  0  0  0  0  0  0  0  0  0
  -21.2205    0.0469  -31.4635 C   0  0  0  0  0  0  0  0  0  0  0  0
  -21.4400    7.7648  -28.9003 C   0  0  0  0  0  0  0  0  0  0  0  0
  -21.0952   -1.1450  -29.0374 C   0  0  0  0  0  0  0  0  0  0  0  0
  -19.7358   -0.6857  -28.4376 C   0  0  0  0  0  0  0  0  0  0  0  0
  -18.7827   -1.8132  -27.9761 C   0  0  0  0  0  0  0  0  0  0  0  0
  -18.2869   -1.7312  -26.5799 C   0  0  0  0  0  0  0  0  0  0  0  0
  -30.3916    1.9483  -35.6813 O   0  0  0  0  0  0  0  0  0  0  0  0
  -29.0102   -0.0569  -34.2405 O   0  0  0  0  0  0  0  0  0  0  0  0
  -28.1749    2.8245  -37.3721 O   0  0  0  0  0  0  0  0  0  0  0  0
  -28.0716    3.6361  -31.9178 O   0  0  0  0  0  0  0  0  0  0  0  0
  -26.9633    3.3880  -35.5132 O   0  0  0  0  0  0  0  0  0  0  0  0
  -26.7657    2.0785  -32.8914 O   0  0  0  0  0  0  0  0  0  0  0  0
  -23.5760    6.2458  -29.5872 O   0  0  0  0  0  0  0  0  0  0  0  0
  -22.9153    1.3561  -30.3341 O   0  0  0  0  0  0  0  0  0  0  0  0
  -21.4384    6.2869  -28.9688 O   0  0  0  0  0  0  0  0  0  0  0  0
  -20.9535    4.1971  -31.0380 O   0  0  0  0  0  0  0  0  0  0  0  0
  -20.5232    2.6113  -34.1083 O   0  0  0  0  0  0  0  0  0  0  0  0
  -20.1819   -2.0627  -30.9388 O   0  0  0  0  0  0  0  0  0  0  0  0
  -20.0217    0.6488  -31.4423 O   0  0  0  0  0  0  0  0  0  0  0  0
  -19.0579    0.2523  -29.1179 O   0  0  0  0  0  0  0  0  0  0  0  0
  1  2  2  0
  1  3  1  0
  2  4  1  0
  3  5  2  0
  4  6  2  0
  4 37  1  0
  5  6  1  0
  5  7  1  0
  6 38  1  0
  8 10  1  0
  8 38  1  0
  9 10  1  0
  9 11  1  0
  9 37  1  0
 10 12  1  0
 11 39  1  0
 11 41  1  0
 12 40  1  0
 12 42  1  0
 13 15  1  0
 13 41  1  0
 14 15  1  0
 14 16  1  0
 14 42  1  0
 15 18  1  0
 16 19  1  0
 16 20  1  0
 17 18  1  0
 18 20  1  0
 18 22  1  0
 19 21  1  0
 19 44  1  0
 20 26  1  0
 21 23  1  0
 21 27  1  0
 22 29  1  0
 23 25  1  0
 24 30  1  0
 25 43  2  0
 25 45  1  0
 26 28  1  0
 26 31  1  0
 26 44  1  0
 27 28  1  0
 27 46  1  0
 28 29  1  0
 29 47  1  0
 30 31  1  0
 30 33  1  0
 30 48  1  0
 31 49  1  0
 32 45  1  0
 33 34  1  0
 34 35  1  0
 34 50  1  0
 35 36  1  0
M  END
$$$$

     RDKit          3D

 41 44  0  0  0  0  0  0  0  0999 V2000
  -28.7607    4.2768  -35.0534 C   0  0  0  0  0  0  0  0  0  0  0  0
  -28.3565    3.1716  -37.5813 C   0  0  0  0  0  0  0  0  0  0  0  0
  -27.8985    4.6118  -37.6239 C   0  0  0  0  0  0  0  0  0  0  0  0
  -27.6395    5.1503  -39.0148 C   0  0  0  0  0  0  0  0  0  0  0  0
  -27.7063    6.6382  -39.0405 C   0  0  0  0  0  0  0  0  0  0  0  0
  -27.2063    4.2603  -35.2380 C   0  0  0  0  0  0  0  0  0  0  0  0
  -27.0429    3.8662  -32.8797 C   0  0  0  0  0  0  0  0  0  0  0  0
  -27.0567    7.2215  -37.7877 C   0  0  0  0  0  0  0  0  0  0  0  0
  -26.8417    4.9567  -36.5892 C   0  0  0  0  0  0  0  0  0  0  0  0
  -26.7479    6.5052  -36.4810 C   0  0  0  0  0  0  0  0  0  0  0  0
  -26.5648    4.3147  -39.7891 C   0  0  0  0  0  0  0  0  0  0  0  0
  -26.5766    4.8430  -33.9745 C   0  0  0  0  0  0  0  0  0  0  0  0
  -26.3478    1.7182  -32.3948 C   0  0  0  0  0  0  0  0  0  0  0  0
  -25.5416    3.0447  -32.2926 C   0  0  0  0  0  0  0  0  0  0  0  0
  -25.5134    4.4360  -37.1055 C   0  0  0  0  0  0  0  0  0  0  0  0
  -25.1828   -0.5533  -32.3153 C   0  0  0  0  0  0  0  0  0  0  0  0
  -25.1890    0.8461  -32.2951 C   0  0  0  0  0  0  0  0  0  0  0  0
  -25.0356    4.8682  -33.9097 C   0  0  0  0  0  0  0  0  0  0  0  0
  -24.7126    2.4603  -34.6824 C   0  0  0  0  0  0  0  0  0  0  0  0
  -24.7128    2.8388  -31.0361 C   0  0  0  0  0  0  0  0  0  0  0  0
  -24.7080    3.3899  -33.5150 C   0  0  0  0  0  0  0  0  0  0  0  0
  -24.5809    5.9295  -32.9832 C   0  0  0  0  0  0  0  0  0  0  0  0
  -24.3576    1.0428  -34.4478 C   0  0  0  0  0  0  0  0  0  0  0  0
  -24.3610    1.3652  -31.1408 C   0  0  0  0  0  0  0  0  0  0  0  0
  -23.8750    3.8792  -30.5200 C   0  0  0  0  0  0  0  0  0  0  0  0
  -23.5448   -0.8366  -31.5195 C   0  0  0  0  0  0  0  0  0  0  0  0
  -23.4245    6.9085  -33.2585 C   0  0  0  0  0  0  0  0  0  0  0  0
  -22.9817    0.8810  -31.2243 C   0  0  0  0  0  0  0  0  0  0  0  0
  -22.6382   -0.4546  -30.6090 C   0  0  0  0  0  0  0  0  0  0  0  0
  -22.4752    6.3418  -34.1470 C   0  0  0  0  0  0  0  0  0  0  0  0
  -21.5923   -2.5572  -30.9851 C   0  0  0  0  0  0  0  0  0  0  0  0
  -21.3623   -1.0671  -30.9886 C   0  0  0  0  0  0  0  0  0  0  0  0
  -20.6781   -4.8011  -30.8944 C   0  0  0  0  0  0  0  0  0  0  0  0
  -20.4133   -3.4314  -30.8498 C   0  0  0  0  0  0  0  0  0  0  0  0
  -20.1750   -0.6922  -30.1106 C   0  0  0  0  0  0  0  0  0  0  0  0
  -19.2123   -2.9020  -30.0433 C   0  0  0  0  0  0  0  0  0  0  0  0
  -18.9015   -1.4769  -30.4933 C   0  0  0  0  0  0  0  0  0  0  0  0
  -28.9440    4.7713  -39.5862 O   0  0  0  0  0  0  0  0  0  0  0  0
  -27.1736    5.7372  -33.2353 O   0  0  0  0  0  0  0  0  0  0  0  0
  -23.8470   -1.1297  -30.3620 O   0  0  0  0  0  0  0  0  0  0  0  0
  -22.2146    1.4352  -32.1008 O   0  0  0  0  0  0  0  0  0  0  0  0
  1  6  1  0
  2  3  1  0
  3  4  1  0
  3  9  1  0
  4  5  1  0
  4 11  1  0
  4 38  1  0
  5  8  1  0
  6  9  1  0
  6 12  1  0
  7 12  1  0
  7 14  1  0
  8 10  1  0
  9 10  1  0
  9 15  1  0
 12 18  1  0
 12 39  1  0
 13 14  1  0
 13 17  1  0
 14 20  1  0
 14 21  1  0
 16 17  1  0
 17 24  1  0
 18 21  1  0
 18 22  1  0
 19 21  1  0
 19 23  1  0
 20 24  1  0
 20 25  1  0
 22 27  1  0
 24 28  1  0
 26 29  1  0
 26 40  1  0
 27 30  1  0
 28 29  1  0
 28 41  1  0
 29 32  1  0
 31 32  1  0
 31 34  1  0
 32 35  1  0
 33 34  1  0
 34 36  1  0
 35 37  1  0
 36 37  1  0
M  END
$$$$

     RDKit          3D

 31 32  0  0  0  0  0  0  0  0999 V2000
  -27.0358    2.5826  -34.5804 C   0  0  0  0  0  0  0  0  0  0  0  0
  -26.2450    4.9354  -34.4784 C   0  0  0  0  0  0  0  0  0  0  0  0
  -25.9908    0.5122  -33.8701 C   0  0  0  0  0  0  0  0  0  0  0  0
  -26.0479    3.6355  -34.9397 C   0  0  0  0  0  0  0  0  0  0  0  0
  -25.5080    0.5648  -32.5041 C   0  0  0  0  0  0  0  0  0  0  0  0
  -25.3081    5.9320  -34.7815 C   0  0  0  0  0  0  0  0  0  0  0  0
  -24.9497    3.3018  -35.7333 C   0  0  0  0  0  0  0  0  0  0  0  0
  -24.1426    1.0721  -32.3593 C   0  0  0  0  0  0  0  0  0  0  0  0
  -23.9962    4.2942  -36.0307 C   0  0  0  0  0  0  0  0  0  0  0  0
  -24.1908    5.6139  -35.5838 C   0  0  0  0  0  0  0  0  0  0  0  0
  -23.5662   -0.5723  -30.9426 C   0  0  0  0  0  0  0  0  0  0  0  0
  -23.5423    7.9700  -35.6784 C   0  0  0  0  0  0  0  0  0  0  0  0
  -23.3504    1.7498  -30.1146 C   0  0  0  0  0  0  0  0  0  0  0  0
  -23.1571    6.6358  -35.9261 C   0  0  0  0  0  0  0  0  0  0  0  0
  -22.1647   -1.0384  -30.9418 C   0  0  0  0  0  0  0  0  0  0  0  0
  -21.8142   -1.8836  -29.7132 C   0  0  0  0  0  0  0  0  0  0  0  0
  -21.9416    1.8021  -29.5966 C   0  0  0  0  0  0  0  0  0  0  0  0
  -21.8083    6.2363  -35.5125 C   0  0  0  0  0  0  0  0  0  0  0  0
  -21.2894    0.5029  -29.6886 C   0  0  0  0  0  0  0  0  0  0  0  0
  -20.5951   -3.5593  -30.9144 C   0  0  0  0  0  0  0  0  0  0  0  0
  -19.6545   -4.7228  -30.6797 C   0  0  0  0  0  0  0  0  0  0  0  0
  -19.2616   -1.7488  -29.9071 C   0  0  0  0  0  0  0  0  0  0  0  0
  -28.7725   -1.7827  -33.1172 O   0  0  0  0  0  0  0  0  0  0  0  0
  -26.9435   -1.2700  -31.6414 O   0  0  0  0  0  0  0  0  0  0  0  0
  -23.4536    1.3270  -33.3363 O   0  0  0  0  0  0  0  0  0  0  0  0
  -21.2713    0.0351  -30.9697 O   0  0  0  0  0  0  0  0  0  0  0  0
  -27.2478   -0.1312  -33.8617 N   0  0  0  0  0  0  0  0  0  0  0  0
  -26.9560    1.3424  -34.2448 N   0  0  0  0  0  0  0  0  0  0  0  0
  -23.6173    0.8510  -31.1490 N   0  0  0  0  0  0  0  0  0  0  0  0
  -20.5526   -2.5606  -29.8549 N   0  0  0  0  0  0  0  0  0  0  0  0
  -27.5481   -1.1024  -32.8316 S   0  0  0  0  0  0  0  0  0  0  0  0
  1  4  1  0
  1 28  2  3
  2  4  2  0
  2  6  1  0
  3  5  1  0
  3 27  1  0
  3 28  1  0
  4  7  1  0
  5  8  1  0
  6 10  2  0
  7  9  2  0
  8 25  2  0
  8 29  1  0
  9 10  1  0
 10 14  1  0
 11 15  1  0
 11 29  1  0
 12 14  1  0
 13 17  1  0
 13 29  1  0
 14 18  1  0
 15 16  1  0
 15 26  1  0
 16 30  1  0
 17 19  1  0
 19 26  1  0
 20 21  1  0
 20 30  1  0
 22 30  1  0
 23 31  1  0
 24 31  1  0
 27 31  1  0
M  END
$$$$

     RDKit          3D

 23 26  0  0  0  0  0  0  0  0999 V2000
  -28.9174    4.4181  -32.5635 C   0  0  0  0  0  0  0  0  0  0  0  0
  -28.6975    3.1165  -33.2124 C   0  0  0  0  0  0  0  0  0  0  0  0
  -27.7488    5.0371  -31.8951 C   0  0  0  0  0  0  0  0  0  0  0  0
  -27.2685    1.1179  -33.6792 C   0  0  0  0  0  0  0  0  0  0  0  0
  -27.4254    2.4648  -33.2128 C   0  0  0  0  0  0  0  0  0  0  0  0
  -26.6484    4.0521  -31.5254 C   0  0  0  0  0  0  0  0  0  0  0  0
  -26.2161    3.2975  -32.7895 C   0  0  0  0  0  0  0  0  0  0  0  0
  -25.9766    0.3543  -33.4413 C   0  0  0  0  0  0  0  0  0  0  0  0
  -25.9616    4.4920  -33.7956 C   0  0  0  0  0  0  0  0  0  0  0  0
  -25.0744    1.0130  -32.3153 C   0  0  0  0  0  0  0  0  0  0  0  0
  -24.8984    2.5039  -32.7094 C   0  0  0  0  0  0  0  0  0  0  0  0
  -24.2460    2.7268  -34.1713 C   0  0  0  0  0  0  0  0  0  0  0  0
  -23.7805   -1.1867  -31.8373 C   0  0  0  0  0  0  0  0  0  0  0  0
  -23.9180    3.1943  -31.6962 C   0  0  0  0  0  0  0  0  0  0  0  0
  -23.6770    0.2789  -32.2085 C   0  0  0  0  0  0  0  0  0  0  0  0
  -23.2358    0.9971  -29.7230 C   0  0  0  0  0  0  0  0  0  0  0  0
  -22.7429    1.0598  -31.2129 C   0  0  0  0  0  0  0  0  0  0  0  0
  -22.6613   -1.7341  -31.0278 C   0  0  0  0  0  0  0  0  0  0  0  0
  -22.5399    2.4986  -31.6874 C   0  0  0  0  0  0  0  0  0  0  0  0
  -21.2126   -1.0151  -31.1047 C   0  0  0  0  0  0  0  0  0  0  0  0
  -21.3096    0.4333  -31.0883 C   0  0  0  0  0  0  0  0  0  0  0  0
  -30.0873    4.9469  -32.5338 O   0  0  0  0  0  0  0  0  0  0  0  0
  -21.7043   -0.9889  -30.4847 O   0  0  0  0  0  0  0  0  0  0  0  0
  1  2  1  0
  1  3  1  0
  1 22  2  0
  2  5  2  0
  3  6  1  0
  4  5  1  0
  4  8  1  0
  5  7  1  0
  6  7  1  0
  7  9  1  0
  7 11  1  0
  8 10  1  0
 10 11  1  0
 10 15  1  0
 11 12  1  0
 11 14  1  0
 13 15  1  0
 13 18  2  0
 14 19  1  0
 15 17  1  0
 16 17  1  0
 17 19  1  0
 17 21  1  0
 18 23  1  0
 20 21  1  0
 20 23  1  0
M  END
$$$$

     RDKit          3D

 28 31  0  0  0  0  0  0  0  0999 V2000
  -31.2136   -2.5527  -36.1060 C   0  0  0  0  0  0  0  0  0  0  0  0
  -30.6925   -0.4365  -35.1359 C   0  0  0  0  0  0  0  0  0  0  0  0
  -29.6317    0.1273  -34.3612 C   0  0  0  0  0  0  0  0  0  0  0  0
  -29.3900   -2.1485  -34.4836 C   0  0  0  0  0  0  0  0  0  0  0  0
  -27.5824   -1.5146  -32.0329 C   0  0  0  0  0  0  0  0  0  0  0  0
  -27.6142   -0.8374  -33.2744 C   0  0  0  0  0  0  0  0  0  0  0  0
  -26.4539   -0.0751  -33.6033 C   0  0  0  0  0  0  0  0  0  0  0  0
  -25.4187   -0.7329  -31.4661 C   0  0  0  0  0  0  0  0  0  0  0  0
  -25.3479   -0.0095  -32.6801 C   0  0  0  0  0  0  0  0  0  0  0  0
  -24.1081    0.7037  -32.9229 C   0  0  0  0  0  0  0  0  0  0  0  0
  -23.8414    6.3465  -33.3917 C   0  0  0  0  0  0  0  0  0  0  0  0
  -23.4713    5.4937  -34.4488 C   0  0  0  0  0  0  0  0  0  0  0  0
  -23.2406    6.1618  -32.1370 C   0  0  0  0  0  0  0  0  0  0  0  0
  -23.1991   -0.0226  -30.8429 C   0  0  0  0  0  0  0  0  0  0  0  0
  -23.0363    0.7463  -32.0381 C   0  0  0  0  0  0  0  0  0  0  0  0
  -22.5742    4.4452  -34.2297 C   0  0  0  0  0  0  0  0  0  0  0  0
  -22.3813    5.1050  -31.9068 C   0  0  0  0  0  0  0  0  0  0  0  0
  -22.0425    4.2375  -32.9434 C   0  0  0  0  0  0  0  0  0  0  0  0
  -31.6170    0.2191  -35.6868 O   0  0  0  0  0  0  0  0  0  0  0  0
  -20.3471    3.0930  -31.2921 O   0  0  0  0  0  0  0  0  0  0  0  0
  -20.0063    2.7484  -33.7573 O   0  0  0  0  0  0  0  0  0  0  0  0
  -30.5036   -1.7702  -35.2417 N   0  0  0  0  0  0  0  0  0  0  0  0
  -28.7601   -0.9365  -34.1224 N   0  0  0  0  0  0  0  0  0  0  0  0
  -26.5296   -1.4004  -31.1683 N   0  0  0  0  0  0  0  0  0  0  0  0
  -24.3609   -0.7104  -30.5829 N   0  0  0  0  0  0  0  0  0  0  0  0
  -21.8567    1.3774  -32.4896 N   0  0  0  0  0  0  0  0  0  0  0  0
  -20.9878    2.8391  -32.6267 S   0  0  0  0  0  0  0  0  0  0  0  0
  -21.8717   -0.1965  -29.8565 Cl  0  0  0  0  0  0  0  0  0  0  0  0
  1 22  1  0
  2  3  1  0
  2 19  2  0
  2 22  1  0
  3 23  1  0
  4 22  1  0
  4 23  1  0
  5  6  2  0
  5 24  1  0
  6  7  1  0
  6 23  1  0
  7  9  2  0
  8  9  1  0
  8 24  2  0
  8 25  1  0
  9 10  1  0
 10 15  2  0
 11 12  2  0
 11 13  1  0
 12 16  1  0
 13 17  2  0
 14 15  1  0
 14 25  2  0
 14 28  1  0
 15 26  1  0
 16 18  2  0
 17 18  1  0
 18 27  1  0
 20 27  1  0
 21 27  1  0
 26 27  1  0
M  END
$$$$

     RDKit          3D

 46 49  0  0  0  0  0  0  0  0999 V2000
  -30.6269    3.5372  -35.5709 C   0  0  0  0  0  0  0  0  0  0  0  0
  -30.2840    2.3487  -36.5314 C   0  0  0  0  0  0  0  0  0  0  0  0
  -29.3398    2.7914  -33.5811 C   0  0  0  0  0  0  0  0  0  0  0  0
  -29.3872    3.8127  -34.7549 C   0  0  0  0  0  0  0  0  0  0  0  0
  -28.7923    2.4823  -36.8148 C   0  0  0  0  0  0  0  0  0  0  0  0
  -28.0249    4.2368  -32.0498 C   0  0  0  0  0  0  0  0  0  0  0  0
  -27.9185    2.4493  -35.8360 C   0  0  0  0  0  0  0  0  0  0  0  0
  -26.9647    4.1306  -30.9675 C   0  0  0  0  0  0  0  0  0  0  0  0
  -26.1400   -0.3774  -31.9683 C   0  0  0  0  0  0  0  0  0  0  0  0
  -25.9753    0.6611  -32.9978 C   0  0  0  0  0  0  0  0  0  0  0  0
  -25.5299    3.9996  -31.3612 C   0  0  0  0  0  0  0  0  0  0  0  0
  -25.4526   -0.4500  -34.0137 C   0  0  0  0  0  0  0  0  0  0  0  0
  -25.1944    3.2528  -32.6714 C   0  0  0  0  0  0  0  0  0  0  0  0
  -24.8356    1.7115  -32.9110 C   0  0  0  0  0  0  0  0  0  0  0  0
  -24.8702    5.4233  -31.1329 C   0  0  0  0  0  0  0  0  0  0  0  0
  -24.1810    1.6365  -34.2997 C   0  0  0  0  0  0  0  0  0  0  0  0
  -23.7844    2.0674  -30.7812 C   0  0  0  0  0  0  0  0  0  0  0  0
  -22.7881    2.1040  -34.5770 C   0  0  0  0  0  0  0  0  0  0  0  0
  -22.4686    2.9691  -28.9197 C   0  0  0  0  0  0  0  0  0  0  0  0
  -22.4071    2.0533  -30.1326 C   0  0  0  0  0  0  0  0  0  0  0  0
  -21.8414   -3.1999  -30.9425 C   0  0  0  0  0  0  0  0  0  0  0  0
  -21.8127   -1.5597  -31.2730 C   0  0  0  0  0  0  0  0  0  0  0  0
  -21.8819    2.7867  -33.5826 C   0  0  0  0  0  0  0  0  0  0  0  0
  -21.3273    2.6545  -31.0253 C   0  0  0  0  0  0  0  0  0  0  0  0
  -20.7099   -1.1812  -30.4248 C   0  0  0  0  0  0  0  0  0  0  0  0
  -20.7493    0.1487  -29.7415 C   0  0  0  0  0  0  0  0  0  0  0  0
  -20.0055    2.4547  -30.1919 C   0  0  0  0  0  0  0  0  0  0  0  0
  -19.6260    0.9897  -30.1997 C   0  0  0  0  0  0  0  0  0  0  0  0
  -18.7860    3.3129  -30.5617 C   0  0  0  0  0  0  0  0  0  0  0  0
  -18.8030   -2.2854  -30.4561 C   0  0  0  0  0  0  0  0  0  0  0  0
  -31.6599    3.2932  -34.6189 O   0  0  0  0  0  0  0  0  0  0  0  0
  -30.9694    2.3373  -37.7718 O   0  0  0  0  0  0  0  0  0  0  0  0
  -29.4640    5.1333  -34.1903 O   0  0  0  0  0  0  0  0  0  0  0  0
  -28.4510    3.0076  -32.5609 O   0  0  0  0  0  0  0  0  0  0  0  0
  -28.2659    3.7677  -35.5821 O   0  0  0  0  0  0  0  0  0  0  0  0
  -25.0231    5.9346  -29.9940 O   0  0  0  0  0  0  0  0  0  0  0  0
  -24.7023    3.1049  -30.5080 O   0  0  0  0  0  0  0  0  0  0  0  0
  -23.9810    5.8162  -31.9919 O   0  0  0  0  0  0  0  0  0  0  0  0
  -23.9593    1.2820  -31.9197 O   0  0  0  0  0  0  0  0  0  0  0  0
  -22.7679   -3.1937  -29.8974 O   0  0  0  0  0  0  0  0  0  0  0  0
  -22.0750    0.7169  -29.7275 O   0  0  0  0  0  0  0  0  0  0  0  0
  -21.5920    3.9245  -31.2848 O   0  0  0  0  0  0  0  0  0  0  0  0
  -20.9285    3.4017  -34.2227 O   0  0  0  0  0  0  0  0  0  0  0  0
  -20.2958    2.8509  -28.8095 O   0  0  0  0  0  0  0  0  0  0  0  0
  -19.4733   -1.4222  -31.0893 O   0  0  0  0  0  0  0  0  0  0  0  0
  -21.3662    1.9913  -32.4223 N   0  0  0  0  0  0  0  0  0  0  0  0
  1  2  1  0
  1  4  1  0
  1 31  1  0
  2  5  1  0
  2 32  1  0
  3  4  1  0
  3 34  1  0
  4 33  1  0
  4 35  1  0
  5  7  1  0
  6  8  1  0
  6 34  1  0
  7 35  1  0
  8 11  1  0
  9 10  1  0
 10 12  1  0
 10 14  1  0
 11 13  1  0
 11 15  1  0
 11 37  1  0
 13 14  1  0
 14 16  1  0
 14 39  1  0
 15 36  2  0
 15 38  1  0
 16 18  2  3
 17 20  1  0
 17 37  1  0
 17 39  1  0
 18 23  1  0
 19 20  1  0
 20 24  1  0
 20 41  1  0
 21 22  1  0
 21 40  1  0
 22 25  1  0
 23 43  1  0
 23 46  1  0
 24 27  1  0
 24 42  1  0
 24 46  1  0
 25 26  1  0
 25 45  1  0
 26 28  1  0
 26 41  1  0
 27 28  1  0
 27 29  1  0
 27 44  1  0
 30 45  1  0
M  END
$$$$

     RDKit          3D

 29 31  0  0  0  0  0  0  0  0999 V2000
  -28.0833    2.7434  -33.2819 C   0  0  0  0  0  0  0  0  0  0  0  0
  -27.6778    5.0845  -31.1415 C   0  0  0  0  0  0  0  0  0  0  0  0
  -27.5092    6.9587  -33.7833 C   0  0  0  0  0  0  0  0  0  0  0  0
  -27.5764    7.3660  -36.1002 C   0  0  0  0  0  0  0  0  0  0  0  0
  -27.2568    5.5169  -34.2943 C   0  0  0  0  0  0  0  0  0  0  0  0
  -26.9630    3.7838  -31.2814 C   0  0  0  0  0  0  0  0  0  0  0  0
  -26.7340    3.3325  -32.7206 C   0  0  0  0  0  0  0  0  0  0  0  0
  -26.6604    4.3263  -36.4313 C   0  0  0  0  0  0  0  0  0  0  0  0
  -26.2483    5.3626  -35.3685 C   0  0  0  0  0  0  0  0  0  0  0  0
  -26.1334    1.1589  -31.4614 C   0  0  0  0  0  0  0  0  0  0  0  0
  -26.1883    4.6553  -33.2787 C   0  0  0  0  0  0  0  0  0  0  0  0
  -26.1880    6.6958  -36.2100 C   0  0  0  0  0  0  0  0  0  0  0  0
  -25.6495    1.1649  -33.9090 C   0  0  0  0  0  0  0  0  0  0  0  0
  -25.6824    2.1023  -32.6213 C   0  0  0  0  0  0  0  0  0  0  0  0
  -25.1366   -0.0283  -31.2872 C   0  0  0  0  0  0  0  0  0  0  0  0
  -25.1507    4.6951  -34.5643 C   0  0  0  0  0  0  0  0  0  0  0  0
  -24.8695    3.1805  -34.7998 C   0  0  0  0  0  0  0  0  0  0  0  0
  -24.2239    2.6090  -32.3568 C   0  0  0  0  0  0  0  0  0  0  0  0
  -23.7241    0.2609  -31.4033 C   0  0  0  0  0  0  0  0  0  0  0  0
  -23.6404    2.9701  -33.8895 C   0  0  0  0  0  0  0  0  0  0  0  0
  -23.2703    1.6369  -31.7126 C   0  0  0  0  0  0  0  0  0  0  0  0
  -22.6719   -0.7399  -31.6388 C   0  0  0  0  0  0  0  0  0  0  0  0
  -21.2296   -3.0258  -30.9531 C   0  0  0  0  0  0  0  0  0  0  0  0
  -21.4101   -0.5809  -30.8393 C   0  0  0  0  0  0  0  0  0  0  0  0
  -27.6459    8.7840  -36.0841 O   0  0  0  0  0  0  0  0  0  0  0  0
  -26.2344    7.6332  -33.6651 O   0  0  0  0  0  0  0  0  0  0  0  0
  -25.6422   -1.0955  -30.9387 O   0  0  0  0  0  0  0  0  0  0  0  0
  -22.1640   -3.4010  -30.0526 O   0  0  0  0  0  0  0  0  0  0  0  0
  -20.5909   -1.7759  -30.8309 O   0  0  0  0  0  0  0  0  0  0  0  0
  1  7  1  0
  2  6  1  0
  3  5  1  0
  3 26  1  0
  4 12  1  0
  4 25  1  0
  5  9  1  0
  5 11  1  0
  6  7  1  0
  7 11  1  0
  7 14  1  0
  8  9  1  0
  9 12  1  0
  9 16  1  0
 10 14  1  0
 10 15  1  0
 11 16  1  0
 13 14  1  0
 14 18  1  0
 15 19  1  0
 15 27  2  0
 16 17  1  0
 17 20  1  0
 18 20  1  0
 18 21  1  0
 19 21  1  0
 19 22  1  0
 22 24  1  0
 23 28  1  0
 23 29  1  0
 24 29  1  0
M  END
$$$$

     RDKit          3D

 46 49  0  0  0  0  0  0  0  0999 V2000
  -33.1805    1.6304  -34.3825 C   0  0  0  0  0  0  0  0  0  0  0  0
  -31.5434    0.9243  -35.1684 C   0  0  0  0  0  0  0  0  0  0  0  0
  -30.0521    0.8523  -34.7672 C   0  0  0  0  0  0  0  0  0  0  0  0
  -29.7901   -0.5309  -33.9327 C   0  0  0  0  0  0  0  0  0  0  0  0
  -29.6834    1.8195  -33.6843 C   0  0  0  0  0  0  0  0  0  0  0  0
  -29.4259    1.2315  -36.1685 C   0  0  0  0  0  0  0  0  0  0  0  0
  -29.1024    3.1363  -34.1070 C   0  0  0  0  0  0  0  0  0  0  0  0
  -28.5297    3.7471  -32.8348 C   0  0  0  0  0  0  0  0  0  0  0  0
  -28.4117   -0.9748  -34.1828 C   0  0  0  0  0  0  0  0  0  0  0  0
  -28.4492    2.5763  -36.4461 C   0  0  0  0  0  0  0  0  0  0  0  0
  -27.9583    2.9607  -35.1074 C   0  0  0  0  0  0  0  0  0  0  0  0
  -27.3642   -0.5406  -33.6159 C   0  0  0  0  0  0  0  0  0  0  0  0
  -27.3930    4.6768  -33.0910 C   0  0  0  0  0  0  0  0  0  0  0  0
  -26.4023    4.6803  -31.9698 C   0  0  0  0  0  0  0  0  0  0  0  0
  -26.0670   -0.0278  -33.7315 C   0  0  0  0  0  0  0  0  0  0  0  0
  -25.9854    3.9818  -34.2299 C   0  0  0  0  0  0  0  0  0  0  0  0
  -25.8667    0.9048  -32.6117 C   0  0  0  0  0  0  0  0  0  0  0  0
  -25.2831    5.6084  -31.9272 C   0  0  0  0  0  0  0  0  0  0  0  0
  -25.0650   -0.5508  -34.5401 C   0  0  0  0  0  0  0  0  0  0  0  0
  -25.2008    5.2957  -34.3391 C   0  0  0  0  0  0  0  0  0  0  0  0
  -24.7788    0.9463  -31.7033 C   0  0  0  0  0  0  0  0  0  0  0  0
  -24.4719   -0.3092  -30.8464 C   0  0  0  0  0  0  0  0  0  0  0  0
  -24.3477    5.5081  -33.1107 C   0  0  0  0  0  0  0  0  0  0  0  0
  -23.6435    5.6412  -30.3382 C   0  0  0  0  0  0  0  0  0  0  0  0
  -22.9607   -0.1984  -30.5365 C   0  0  0  0  0  0  0  0  0  0  0  0
  -22.2668    1.6463  -30.7839 C   0  0  0  0  0  0  0  0  0  0  0  0
  -22.3134    5.1437  -30.6366 C   0  0  0  0  0  0  0  0  0  0  0  0
  -22.0948   -2.5743  -30.3882 C   0  0  0  0  0  0  0  0  0  0  0  0
  -21.8040   -1.1294  -30.6125 C   0  0  0  0  0  0  0  0  0  0  0  0
  -21.5160    3.1695  -29.0543 C   0  0  0  0  0  0  0  0  0  0  0  0
  -20.9842   -4.8150  -30.7418 C   0  0  0  0  0  0  0  0  0  0  0  0
  -21.0585   -3.4248  -31.0725 C   0  0  0  0  0  0  0  0  0  0  0  0
  -21.1660    1.8456  -29.7623 C   0  0  0  0  0  0  0  0  0  0  0  0
  -21.1355    4.2711  -30.0501 C   0  0  0  0  0  0  0  0  0  0  0  0
  -20.9388    0.6177  -28.8768 C   0  0  0  0  0  0  0  0  0  0  0  0
  -20.6348   -0.6749  -29.6803 C   0  0  0  0  0  0  0  0  0  0  0  0
  -20.6730    3.2457  -27.7466 C   0  0  0  0  0  0  0  0  0  0  0  0
  -27.0524    4.0415  -35.1003 O   0  0  0  0  0  0  0  0  0  0  0  0
  -25.4152   -1.0875  -31.0208 O   0  0  0  0  0  0  0  0  0  0  0  0
  -24.6083    5.2839  -30.8969 O   0  0  0  0  0  0  0  0  0  0  0  0
  -24.2653    5.3693  -35.4566 O   0  0  0  0  0  0  0  0  0  0  0  0
  -24.1817    6.3033  -29.4922 O   0  0  0  0  0  0  0  0  0  0  0  0
  -22.9798   -3.1443  -29.7222 O   0  0  0  0  0  0  0  0  0  0  0  0
  -22.5886    0.7841  -31.2701 O   0  0  0  0  0  0  0  0  0  0  0  0
  -19.5113   -0.3765  -30.5181 O   0  0  0  0  0  0  0  0  0  0  0  0
  -26.6260    1.9855  -32.3885 N   0  0  0  0  0  0  0  0  0  0  0  0
  1  2  1  0
  2  3  1  0
  3  4  1  0
  3  5  1  0
  3  6  1  0
  4  9  1  0
  5  7  1  0
  6 10  1  0
  7  8  1  0
  7 11  1  0
  8 13  1  0
  9 12  1  0
 10 11  1  0
 11 38  1  0
 12 15  1  0
 13 14  1  0
 14 18  1  0
 15 17  1  0
 15 19  1  0
 16 20  1  0
 16 38  1  0
 17 21  1  0
 17 46  1  0
 18 23  1  0
 18 40  1  0
 20 23  1  0
 20 41  1  0
 21 22  1  0
 22 25  1  0
 22 39  2  0
 24 27  1  0
 24 40  1  0
 24 42  2  0
 25 29  1  0
 25 44  1  0
 26 33  1  0
 26 44  1  0
 27 34  1  0
 28 29  1  0
 28 32  1  0
 28 43  2  0
 29 36  1  0
 30 33  1  0
 30 34  1  0
 30 37  1  0
 31 32  1  0
 33 35  1  0
 35 36  1  0
 36 45  1  0
M  END
$$$$

     RDKit          3D

 27 30  0  0  0  0  0  0  0  0999 V2000
  -27.2289    5.3553  -35.1317 C   0  0  0  0  0  0  0  0  0  0  0  0
  -27.2133    5.1668  -32.7092 C   0  0  0  0  0  0  0  0  0  0  0  0
  -26.2384    5.2523  -33.9218 C   0  0  0  0  0  0  0  0  0  0  0  0
  -26.1640    1.9122  -33.1641 C   0  0  0  0  0  0  0  0  0  0  0  0
  -26.0237    2.8017  -34.3579 C   0  0  0  0  0  0  0  0  0  0  0  0
  -25.4858    6.5545  -33.7177 C   0  0  0  0  0  0  0  0  0  0  0  0
  -25.3989    4.0467  -33.9475 C   0  0  0  0  0  0  0  0  0  0  0  0
  -24.9702    1.8767  -32.1775 C   0  0  0  0  0  0  0  0  0  0  0  0
  -24.7428    0.4251  -31.8598 C   0  0  0  0  0  0  0  0  0  0  0  0
  -23.9642    3.9138  -33.4144 C   0  0  0  0  0  0  0  0  0  0  0  0
  -24.0306    6.4868  -33.4284 C   0  0  0  0  0  0  0  0  0  0  0  0
  -23.7378    2.5560  -32.7609 C   0  0  0  0  0  0  0  0  0  0  0  0
  -23.5178    0.0972  -31.0738 C   0  0  0  0  0  0  0  0  0  0  0  0
  -23.5532    5.1871  -32.6729 C   0  0  0  0  0  0  0  0  0  0  0  0
  -23.3784   -1.4478  -30.8520 C   0  0  0  0  0  0  0  0  0  0  0  0
  -23.0506    3.7271  -34.8027 C   0  0  0  0  0  0  0  0  0  0  0  0
  -22.8010    3.0405  -30.6103 C   0  0  0  0  0  0  0  0  0  0  0  0
  -22.5190    2.2963  -31.9921 C   0  0  0  0  0  0  0  0  0  0  0  0
  -22.2112   -1.8147  -29.9357 C   0  0  0  0  0  0  0  0  0  0  0  0
  -22.2589    0.7748  -31.6822 C   0  0  0  0  0  0  0  0  0  0  0  0
  -21.0718    0.7143  -30.6787 C   0  0  0  0  0  0  0  0  0  0  0  0
  -20.9018   -1.8372  -30.7166 C   0  0  0  0  0  0  0  0  0  0  0  0
  -20.2254   -3.1681  -30.5893 C   0  0  0  0  0  0  0  0  0  0  0  0
  -20.2347   -0.5016  -30.9166 C   0  0  0  0  0  0  0  0  0  0  0  0
  -21.3768    2.8303  -32.6319 O   0  0  0  0  0  0  0  0  0  0  0  0
  -20.9438   -4.1204  -30.1951 O   0  0  0  0  0  0  0  0  0  0  0  0
  -18.9874   -3.3402  -30.7891 O   0  0  0  0  0  0  0  0  0  0  0  0
  1  3  1  0
  2  3  1  0
  3  6  1  0
  3  7  1  0
  4  5  1  0
  4  8  1  0
  5  7  1  0
  6 11  1  0
  7 10  1  0
  8  9  1  0
  8 12  1  0
  9 13  1  0
 10 12  1  0
 10 14  1  0
 10 16  1  0
 11 14  1  0
 12 18  1  0
 13 15  1  0
 13 20  1  0
 15 19  1  0
 17 18  1  0
 18 20  1  0
 18 25  1  0
 19 22  1  0
 20 21  1  0
 21 24  1  0
 22 23  1  0
 22 24  1  0
 23 26  2  0
 23 27  1  0
M  END
$$$$

     RDKit          3D

 28 31  0  0  0  0  0  0  0  0999 V2000
  -30.8178   -0.0716  -35.2290 C   0  0  0  0  0  0  0  0  0  0  0  0
  -30.2243   -2.4399  -35.3699 C   0  0  0  0  0  0  0  0  0  0  0  0
  -29.7357    0.1274  -34.3253 C   0  0  0  0  0  0  0  0  0  0  0  0
  -29.2748   -2.2305  -34.3995 C   0  0  0  0  0  0  0  0  0  0  0  0
  -29.0245   -1.0411  -33.9378 C   0  0  0  0  0  0  0  0  0  0  0  0
  -27.7419   -0.7709  -33.2835 C   0  0  0  0  0  0  0  0  0  0  0  0
  -27.4361   -1.4248  -32.1054 C   0  0  0  0  0  0  0  0  0  0  0  0
  -26.8373    0.1092  -33.9052 C   0  0  0  0  0  0  0  0  0  0  0  0
  -26.2284   -1.1576  -31.4424 C   0  0  0  0  0  0  0  0  0  0  0  0
  -25.6444    0.4318  -33.2035 C   0  0  0  0  0  0  0  0  0  0  0  0
  -25.3609   -0.2431  -31.9893 C   0  0  0  0  0  0  0  0  0  0  0  0
  -24.7156    1.3750  -33.7883 C   0  0  0  0  0  0  0  0  0  0  0  0
  -24.1409    0.1158  -31.2635 C   0  0  0  0  0  0  0  0  0  0  0  0
  -23.2498    1.0994  -31.7690 C   0  0  0  0  0  0  0  0  0  0  0  0
  -22.5297    5.8676  -35.3793 C   0  0  0  0  0  0  0  0  0  0  0  0
  -22.4858    6.5900  -34.2444 C   0  0  0  0  0  0  0  0  0  0  0  0
  -22.4886    6.8708  -31.8430 C   0  0  0  0  0  0  0  0  0  0  0  0
  -22.3215    3.8922  -34.0210 C   0  0  0  0  0  0  0  0  0  0  0  0
  -22.4056    4.4782  -35.2806 C   0  0  0  0  0  0  0  0  0  0  0  0
  -22.2396    4.6269  -32.8690 C   0  0  0  0  0  0  0  0  0  0  0  0
  -22.3940    6.0008  -33.0004 C   0  0  0  0  0  0  0  0  0  0  0  0
  -31.8811   -1.4361  -36.5787 O   0  0  0  0  0  0  0  0  0  0  0  0
  -23.7598   -0.6190  -30.2613 O   0  0  0  0  0  0  0  0  0  0  0  0
  -22.2672    1.6949  -35.2832 O   0  0  0  0  0  0  0  0  0  0  0  0
  -20.9195    1.8260  -33.1965 O   0  0  0  0  0  0  0  0  0  0  0  0
  -30.9760   -1.3564  -35.6569 N   0  0  0  0  0  0  0  0  0  0  0  0
  -23.4522    1.4910  -33.1055 N   0  0  0  0  0  0  0  0  0  0  0  0
  -22.1720    2.1881  -33.9209 S   0  0  0  0  0  0  0  0  0  0  0  0
  1  3  1  0
  1 26  1  0
  2  4  1  0
  2 26  1  0
  3  5  2  0
  4  5  1  0
  5  6  1  0
  6  7  1  0
  6  8  2  0
  7  9  2  0
  8 10  1  0
  9 11  1  0
 10 11  1  0
 10 12  2  0
 11 13  2  0
 12 27  1  0
 13 14  1  0
 13 23  1  0
 14 27  1  0
 15 16  2  0
 15 19  1  0
 16 21  1  0
 17 21  1  0
 18 19  1  0
 18 20  2  0
 18 28  1  0
 20 21  1  0
 22 26  1  0
 24 28  1  0
 25 28  1  0
 27 28  1  0
M  END
$$$$

     RDKit          3D

 31 34  0  0  0  0  0  0  0  0999 V2000
  -28.0389   -1.0374  -33.0014 C   0  0  0  0  0  0  0  0  0  0  0  0
  -27.7554    2.4652  -34.1430 C   0  0  0  0  0  0  0  0  0  0  0  0
  -27.4486    0.2973  -33.1371 C   0  0  0  0  0  0  0  0  0  0  0  0
  -26.5641    2.9455  -33.5544 C   0  0  0  0  0  0  0  0  0  0  0  0
  -26.1816    0.6767  -32.5509 C   0  0  0  0  0  0  0  0  0  0  0  0
  -26.1559    4.3331  -33.6550 C   0  0  0  0  0  0  0  0  0  0  0  0
  -25.7406    2.0317  -32.7697 C   0  0  0  0  0  0  0  0  0  0  0  0
  -25.8528    7.9606  -34.0692 C   0  0  0  0  0  0  0  0  0  0  0  0
  -25.3033   -0.2234  -31.7367 C   0  0  0  0  0  0  0  0  0  0  0  0
  -24.8337    4.6881  -33.2329 C   0  0  0  0  0  0  0  0  0  0  0  0
  -24.7113    7.0414  -34.3332 C   0  0  0  0  0  0  0  0  0  0  0  0
  -24.4679    2.5066  -32.2430 C   0  0  0  0  0  0  0  0  0  0  0  0
  -24.2876    6.0599  -33.3668 C   0  0  0  0  0  0  0  0  0  0  0  0
  -23.9975    7.3266  -35.4692 C   0  0  0  0  0  0  0  0  0  0  0  0
  -23.5195    1.5685  -31.6295 C   0  0  0  0  0  0  0  0  0  0  0  0
  -23.0324   -0.7467  -30.7990 C   0  0  0  0  0  0  0  0  0  0  0  0
  -22.8602    5.6282  -33.6877 C   0  0  0  0  0  0  0  0  0  0  0  0
  -22.9564    6.4493  -35.8246 C   0  0  0  0  0  0  0  0  0  0  0  0
  -22.5162    5.3893  -34.9129 C   0  0  0  0  0  0  0  0  0  0  0  0
  -21.8340   -3.3060  -31.0645 C   0  0  0  0  0  0  0  0  0  0  0  0
  -21.9248    6.9211  -36.7798 C   0  0  0  0  0  0  0  0  0  0  0  0
  -21.6484   -0.8520  -31.2692 C   0  0  0  0  0  0  0  0  0  0  0  0
  -20.6310   -1.7309  -29.6715 C   0  0  0  0  0  0  0  0  0  0  0  0
  -20.4059   -1.0842  -30.9312 C   0  0  0  0  0  0  0  0  0  0  0  0
  -26.9520    7.3651  -33.8438 O   0  0  0  0  0  0  0  0  0  0  0  0
  -25.9667    8.9998  -34.8423 O   0  0  0  0  0  0  0  0  0  0  0  0
  -25.6825   -1.3350  -31.3332 O   0  0  0  0  0  0  0  0  0  0  0  0
  -28.1892    1.1787  -33.8799 N   0  0  0  0  0  0  0  0  0  0  0  0
  -24.1443    3.8408  -32.4287 N   0  0  0  0  0  0  0  0  0  0  0  0
  -23.8699    0.1612  -31.6152 N   0  0  0  0  0  0  0  0  0  0  0  0
  -21.3399   -3.0712  -29.7633 N   0  0  0  0  0  0  0  0  0  0  0  0
  1  3  1  0
  2  4  2  0
  2 28  1  0
  3  5  1  0
  3 28  2  0
  4  6  1  0
  4  7  1  0
  5  7  2  0
  5  9  1  0
  6 10  1  0
  7 12  1  0
  8 11  1  0
  8 25  1  0
  8 26  1  0
  9 27  2  0
  9 30  1  0
 10 13  1  0
 10 29  1  0
 11 13  1  0
 11 14  2  0
 12 15  1  0
 12 29  2  0
 13 17  1  0
 14 18  1  0
 15 30  1  0
 16 22  1  0
 16 30  1  0
 17 19  1  0
 18 19  1  0
 18 21  1  0
 20 31  1  0
 22 24  1  0
 23 24  1  0
 23 31  1  0
M  END
$$$$

     RDKit          3D

 61 65  0  0  0  0  0  0  0  0999 V2000
  -31.8963    8.4121  -28.4023 C   0  0  0  0  0  0  0  0  0  0  0  0
  -30.6760    7.6003  -28.2539 C   0  0  0  0  0  0  0  0  0  0  0  0
  -30.0554    4.3582  -32.8404 C   0  0  0  0  0  0  0  0  0  0  0  0
  -30.0713    6.8028  -27.1443 C   0  0  0  0  0  0  0  0  0  0  0  0
  -29.7426    3.0731  -33.4762 C   0  0  0  0  0  0  0  0  0  0  0  0
  -29.7983    7.4022  -29.3362 C   0  0  0  0  0  0  0  0  0  0  0  0
  -29.8601    8.0229  -30.6038 C   0  0  0  0  0  0  0  0  0  0  0  0
  -28.8454    2.0780  -32.9348 C   0  0  0  0  0  0  0  0  0  0  0  0
  -28.7357    6.5687  -28.9708 C   0  0  0  0  0  0  0  0  0  0  0  0
  -28.7481    7.7944  -31.5327 C   0  0  0  0  0  0  0  0  0  0  0  0
  -27.7773   -0.2244  -33.7477 C   0  0  0  0  0  0  0  0  0  0  0  0
  -27.8056    4.1915  -36.8617 C   0  0  0  0  0  0  0  0  0  0  0  0
  -27.7101    6.1401  -29.9580 C   0  0  0  0  0  0  0  0  0  0  0  0
  -27.7072    6.8530  -31.1994 C   0  0  0  0  0  0  0  0  0  0  0  0
  -27.3184    4.6715  -30.0634 C   0  0  0  0  0  0  0  0  0  0  0  0
  -26.8748    4.6196  -35.8578 C   0  0  0  0  0  0  0  0  0  0  0  0
  -26.9337    5.8787  -35.1726 C   0  0  0  0  0  0  0  0  0  0  0  0
  -26.6282   -0.9560  -31.6171 C   0  0  0  0  0  0  0  0  0  0  0  0
  -26.5274   -0.0637  -32.8781 C   0  0  0  0  0  0  0  0  0  0  0  0
  -26.4474    1.4550  -32.4038 C   0  0  0  0  0  0  0  0  0  0  0  0
  -26.2862    6.7793  -29.1874 C   0  0  0  0  0  0  0  0  0  0  0  0
  -25.5765    3.6514  -31.5579 C   0  0  0  0  0  0  0  0  0  0  0  0
  -25.4901    4.2271  -36.1850 C   0  0  0  0  0  0  0  0  0  0  0  0
  -25.3357   -0.5395  -33.7802 C   0  0  0  0  0  0  0  0  0  0  0  0
  -25.2246    2.3850  -32.5026 C   0  0  0  0  0  0  0  0  0  0  0  0
  -25.1076    2.8685  -33.9363 C   0  0  0  0  0  0  0  0  0  0  0  0
  -24.4383    4.7880  -35.3251 C   0  0  0  0  0  0  0  0  0  0  0  0
  -23.8626    1.2708  -30.6315 C   0  0  0  0  0  0  0  0  0  0  0  0
  -23.9214    1.6646  -32.0897 C   0  0  0  0  0  0  0  0  0  0  0  0
  -23.9390    7.7812  -35.9531 C   0  0  0  0  0  0  0  0  0  0  0  0
  -23.5028    5.3236  -36.4048 C   0  0  0  0  0  0  0  0  0  0  0  0
  -23.0563    2.8369  -36.9040 C   0  0  0  0  0  0  0  0  0  0  0  0
  -22.9985    6.6997  -36.0313 C   0  0  0  0  0  0  0  0  0  0  0  0
  -22.6896   -1.0245  -30.6351 C   0  0  0  0  0  0  0  0  0  0  0  0
  -22.6087    0.4885  -30.2597 C   0  0  0  0  0  0  0  0  0  0  0  0
  -22.4752    4.2263  -36.8501 C   0  0  0  0  0  0  0  0  0  0  0  0
  -21.9109    4.6059  -38.2260 C   0  0  0  0  0  0  0  0  0  0  0  0
  -21.5061    1.7064  -32.2261 C   0  0  0  0  0  0  0  0  0  0  0  0
  -21.2431   -1.4363  -30.8903 C   0  0  0  0  0  0  0  0  0  0  0  0
  -21.3117    1.0993  -30.8355 C   0  0  0  0  0  0  0  0  0  0  0  0
  -21.2130    2.9820  -35.0501 C   0  0  0  0  0  0  0  0  0  0  0  0
  -20.6805    3.4685  -33.7391 C   0  0  0  0  0  0  0  0  0  0  0  0
  -20.2117    0.0797  -30.8675 C   0  0  0  0  0  0  0  0  0  0  0  0
  -20.3849    2.6513  -32.5448 C   0  0  0  0  0  0  0  0  0  0  0  0
  -19.9922   -0.9470  -29.9025 C   0  0  0  0  0  0  0  0  0  0  0  0
  -18.7070   -1.6963  -30.4974 C   0  0  0  0  0  0  0  0  0  0  0  0
  -18.9040    0.6722  -30.4779 C   0  0  0  0  0  0  0  0  0  0  0  0
  -18.1920   -0.5015  -29.7232 C   0  0  0  0  0  0  0  0  0  0  0  0
  -28.8691    6.1404  -27.7536 O   0  0  0  0  0  0  0  0  0  0  0  0
  -27.7689    6.7112  -35.0945 O   0  0  0  0  0  0  0  0  0  0  0  0
  -27.6995   -1.6802  -31.4538 O   0  0  0  0  0  0  0  0  0  0  0  0
  -27.5032    2.1836  -33.1093 O   0  0  0  0  0  0  0  0  0  0  0  0
  -26.8135    3.8108  -31.0402 O   0  0  0  0  0  0  0  0  0  0  0  0
  -26.6382    6.9730  -31.9767 O   0  0  0  0  0  0  0  0  0  0  0  0
  -25.7324   -0.8826  -30.7458 O   0  0  0  0  0  0  0  0  0  0  0  0
  -24.8058    4.6149  -31.5931 O   0  0  0  0  0  0  0  0  0  0  0  0
  -24.0149    3.7511  -34.3038 O   0  0  0  0  0  0  0  0  0  0  0  0
  -22.7306    2.3963  -32.3504 O   0  0  0  0  0  0  0  0  0  0  0  0
  -21.4504    4.1890  -35.8710 O   0  0  0  0  0  0  0  0  0  0  0  0
  -20.6870    1.7825  -35.4505 O   0  0  0  0  0  0  0  0  0  0  0  0
  -19.0246   -1.5058  -29.5230 O   0  0  0  0  0  0  0  0  0  0  0  0
  1  2  1  0
  2  4  1  0
  2  6  1  0
  3  5  1  0
  4 49  1  0
  5  8  1  0
  6  7  1  0
  6  9  2  0
  7 10  1  0
  8 52  1  0
  9 13  1  0
  9 49  1  0
 10 14  2  0
 11 19  1  0
 12 16  1  0
 13 14  1  0
 13 15  1  0
 13 21  1  0
 14 54  1  0
 15 53  1  0
 16 17  1  0
 16 23  1  0
 17 50  2  0
 18 19  1  0
 18 51  2  0
 18 55  1  0
 19 20  1  0
 19 24  1  0
 20 25  1  0
 20 52  1  0
 22 25  1  0
 22 53  1  0
 22 56  2  0
 23 27  1  0
 25 26  1  0
 25 29  1  0
 26 57  1  0
 27 31  1  0
 27 57  1  0
 28 29  1  0
 28 35  1  0
 29 58  1  0
 30 33  1  0
 31 33  1  0
 31 36  1  0
 32 36  1  0
 34 35  1  0
 34 39  1  0
 35 40  1  0
 36 37  1  0
 36 59  1  0
 38 40  1  0
 38 44  1  0
 38 58  1  0
 39 45  1  0
 40 43  1  0
 41 42  1  0
 41 59  1  0
 41 60  2  0
 42 44  1  0
 43 45  1  0
 43 47  1  0
 45 61  1  0
 46 61  1  0
 47 48  1  0
M  END
$$$$

     RDKit          3D

 48 53  0  0  0  0  0  0  0  0999 V2000
  -32.4494    0.9132  -35.1582 C   0  0  0  0  0  0  0  0  0  0  0  0
  -30.5149    0.2707  -33.7591 C   0  0  0  0  0  0  0  0  0  0  0  0
  -30.6113    2.7129  -36.4341 C   0  0  0  0  0  0  0  0  0  0  0  0
  -30.0868    1.3774  -35.8951 C   0  0  0  0  0  0  0  0  0  0  0  0
  -29.7591    4.2523  -32.9962 C   0  0  0  0  0  0  0  0  0  0  0  0
  -29.1051   -0.0274  -33.6861 C   0  0  0  0  0  0  0  0  0  0  0  0
  -28.6195   -0.8314  -32.6313 C   0  0  0  0  0  0  0  0  0  0  0  0
  -28.6363    1.5415  -35.5486 C   0  0  0  0  0  0  0  0  0  0  0  0
  -28.4454    3.9444  -32.5043 C   0  0  0  0  0  0  0  0  0  0  0  0
  -27.8557    6.4062  -32.4016 C   0  0  0  0  0  0  0  0  0  0  0  0
  -27.4888    5.0719  -32.1660 C   0  0  0  0  0  0  0  0  0  0  0  0
  -27.2719   -0.7901  -32.3344 C   0  0  0  0  0  0  0  0  0  0  0  0
  -26.8612    0.6785  -34.1950 C   0  0  0  0  0  0  0  0  0  0  0  0
  -26.9565    7.4414  -32.1172 C   0  0  0  0  0  0  0  0  0  0  0  0
  -26.3667   -0.0565  -33.1194 C   0  0  0  0  0  0  0  0  0  0  0  0
  -26.2106    4.7601  -31.6986 C   0  0  0  0  0  0  0  0  0  0  0  0
  -25.6864    7.1004  -31.6526 C   0  0  0  0  0  0  0  0  0  0  0  0
  -25.2817    5.7719  -31.5016 C   0  0  0  0  0  0  0  0  0  0  0  0
  -24.9613   -0.0491  -32.8308 C   0  0  0  0  0  0  0  0  0  0  0  0
  -24.5115    1.2493  -32.2851 C   0  0  0  0  0  0  0  0  0  0  0  0
  -23.8722    5.5014  -31.0603 C   0  0  0  0  0  0  0  0  0  0  0  0
  -23.3965    2.0191  -30.2901 C   0  0  0  0  0  0  0  0  0  0  0  0
  -23.1795    1.2995  -31.6184 C   0  0  0  0  0  0  0  0  0  0  0  0
  -22.7017    5.7445  -31.9877 C   0  0  0  0  0  0  0  0  0  0  0  0
  -22.4126   -0.0331  -31.4494 C   0  0  0  0  0  0  0  0  0  0  0  0
  -22.4182    7.1126  -32.8339 C   0  0  0  0  0  0  0  0  0  0  0  0
  -21.9640    4.6335  -32.6827 C   0  0  0  0  0  0  0  0  0  0  0  0
  -21.9178    7.2695  -36.4327 C   0  0  0  0  0  0  0  0  0  0  0  0
  -21.6231    5.2274  -34.0387 C   0  0  0  0  0  0  0  0  0  0  0  0
  -21.1920    2.4300  -31.8756 C   0  0  0  0  0  0  0  0  0  0  0  0
  -20.9481    0.1859  -31.2415 C   0  0  0  0  0  0  0  0  0  0  0  0
  -20.9348    3.8737  -31.8016 C   0  0  0  0  0  0  0  0  0  0  0  0
  -19.9602   -4.8932  -30.6039 C   0  0  0  0  0  0  0  0  0  0  0  0
  -20.0478   -0.9423  -31.0666 C   0  0  0  0  0  0  0  0  0  0  0  0
  -19.5492   -3.4746  -30.7772 C   0  0  0  0  0  0  0  0  0  0  0  0
  -18.9447    1.6524  -31.2307 C   0  0  0  0  0  0  0  0  0  0  0  0
  -18.6186   -0.5644  -30.8152 C   0  0  0  0  0  0  0  0  0  0  0  0
  -18.1760    0.6051  -31.4896 C   0  0  0  0  0  0  0  0  0  0  0  0
  -31.2869   -0.1976  -32.9160 O   0  0  0  0  0  0  0  0  0  0  0  0
  -26.8608   -1.3350  -31.2230 O   0  0  0  0  0  0  0  0  0  0  0  0
  -25.1489    2.3420  -32.3877 O   0  0  0  0  0  0  0  0  0  0  0  0
  -22.3607    2.1402  -32.4527 O   0  0  0  0  0  0  0  0  0  0  0  0
  -30.9876    0.9264  -34.8608 N   0  0  0  0  0  0  0  0  0  0  0  0
  -28.2164    0.7152  -34.4458 N   0  0  0  0  0  0  0  0  0  0  0  0
  -22.1305    6.5467  -34.0918 N   0  0  0  0  0  0  0  0  0  0  0  0
  -22.1525    7.2810  -35.1090 N   0  0  0  0  0  0  0  0  0  0  0  0
  -20.3923    1.4400  -31.3857 N   0  0  0  0  0  0  0  0  0  0  0  0
  -20.7118   -2.4093  -30.8385 S   0  0  0  0  0  0  0  0  0  0  0  0
  1 43  1  0
  2  6  1  0
  2 39  2  0
  2 43  1  0
  3  4  1  0
  4  8  1  0
  4 43  1  0
  5  9  1  0
  6  7  1  0
  6 44  1  0
  7 12  2  0
  8 44  1  0
  9 11  1  0
 10 11  2  0
 10 14  1  0
 11 16  1  0
 12 15  1  0
 12 40  1  0
 13 15  2  0
 13 44  1  0
 14 17  2  0
 15 19  1  0
 16 18  2  0
 17 18  1  0
 18 21  1  0
 19 20  1  0
 20 23  1  0
 20 41  2  0
 21 24  1  0
 22 23  1  0
 23 25  1  0
 23 42  1  0
 24 26  1  0
 24 27  1  0
 25 31  1  0
 26 45  1  0
 27 29  1  0
 27 32  1  0
 28 46  1  0
 29 45  1  0
 30 32  1  0
 30 42  1  0
 30 47  1  0
 31 34  2  0
 31 47  1  0
 33 35  1  0
 34 37  1  0
 34 48  1  0
 35 48  1  0
 36 38  1  0
 36 47  1  0
 37 38  1  0
 45 46  1  0
M  END
$$$$

     RDKit          3D

 31 32  0  0  0  0  0  0  0  0999 V2000
  -30.4656   -0.3793  -33.4021 C   0  0  0  0  0  0  0  0  0  0  0  0
  -28.0812   -0.4180  -33.6595 C   0  0  0  0  0  0  0  0  0  0  0  0
  -26.6097   -0.4923  -33.5736 C   0  0  0  0  0  0  0  0  0  0  0  0
  -26.6851    1.5407  -32.2296 C   0  0  0  0  0  0  0  0  0  0  0  0
  -25.9963    0.2281  -32.3268 C   0  0  0  0  0  0  0  0  0  0  0  0
  -25.3309    4.9624  -31.1971 C   0  0  0  0  0  0  0  0  0  0  0  0
  -24.7587    5.3443  -29.9212 C   0  0  0  0  0  0  0  0  0  0  0  0
  -24.5336    0.1695  -31.9401 C   0  0  0  0  0  0  0  0  0  0  0  0
  -24.4941    4.3628  -32.1539 C   0  0  0  0  0  0  0  0  0  0  0  0
  -23.9894   -1.0285  -31.4421 C   0  0  0  0  0  0  0  0  0  0  0  0
  -23.6891    1.2288  -32.1098 C   0  0  0  0  0  0  0  0  0  0  0  0
  -23.3444    4.7513  -36.6782 C   0  0  0  0  0  0  0  0  0  0  0  0
  -23.1061    2.0731  -36.5662 C   0  0  0  0  0  0  0  0  0  0  0  0
  -23.1028    4.1712  -31.9305 C   0  0  0  0  0  0  0  0  0  0  0  0
  -22.9290    5.5764  -28.4216 C   0  0  0  0  0  0  0  0  0  0  0  0
  -22.6212   -1.1618  -31.1341 C   0  0  0  0  0  0  0  0  0  0  0  0
  -22.6378    4.5175  -30.5676 C   0  0  0  0  0  0  0  0  0  0  0  0
  -22.3094    1.1706  -31.8334 C   0  0  0  0  0  0  0  0  0  0  0  0
  -22.0016    3.5498  -34.2376 C   0  0  0  0  0  0  0  0  0  0  0  0
  -22.1072    3.4909  -32.8311 C   0  0  0  0  0  0  0  0  0  0  0  0
  -22.0543    4.2577  -37.0286 C   0  0  0  0  0  0  0  0  0  0  0  0
  -21.7276   -0.0528  -31.3519 C   0  0  0  0  0  0  0  0  0  0  0  0
  -21.5398    2.4394  -35.2052 C   0  0  0  0  0  0  0  0  0  0  0  0
  -21.6587    2.8529  -36.4816 C   0  0  0  0  0  0  0  0  0  0  0  0
  -21.4061    2.3069  -32.1490 C   0  0  0  0  0  0  0  0  0  0  0  0
  -20.0783    2.4114  -31.6563 C   0  0  0  0  0  0  0  0  0  0  0  0
  -29.3150    0.2121  -34.0769 N   0  0  0  0  0  0  0  0  0  0  0  0
  -23.4676    5.1369  -29.6612 N   0  0  0  0  0  0  0  0  0  0  0  0
  -22.9642    3.4416  -36.9421 N   0  0  0  0  0  0  0  0  0  0  0  0
  -20.3572    1.9331  -35.1614 N   0  0  0  0  0  0  0  0  0  0  0  0
  -26.9936    5.2831  -31.5437 Cl  0  0  0  0  0  0  0  0  0  0  0  0
  1 27  1  0
  2  3  1  0
  2 27  1  0
  3  5  1  0
  4  5  1  0
  5  8  1  0
  6  7  2  0
  6  9  1  0
  6 31  1  0
  7 28  1  0
  8 10  2  0
  8 11  1  0
  9 14  1  0
 10 16  1  0
 11 18  2  0
 12 21  1  0
 13 29  1  0
 14 17  2  0
 14 20  1  0
 15 28  1  0
 16 22  2  0
 17 28  1  0
 18 22  1  0
 18 25  1  0
 19 20  1  0
 19 23  1  0
 20 25  1  0
 21 29  1  0
 23 24  1  0
 23 30  1  0
 24 29  1  0
 25 26  1  0
M  END
$$$$

     RDKit          3D

 36 38  0  0  0  0  0  0  0  0999 V2000
  -32.2990    2.3991  -34.1498 C   0  0  0  0  0  0  0  0  0  0  0  0
  -32.0014    0.5077  -33.9169 C   0  0  0  0  0  0  0  0  0  0  0  0
  -30.9080    2.7747  -34.4474 C   0  0  0  0  0  0  0  0  0  0  0  0
  -30.5262    0.4355  -33.8557 C   0  0  0  0  0  0  0  0  0  0  0  0
  -29.9613   -0.8343  -34.5578 C   0  0  0  0  0  0  0  0  0  0  0  0
  -28.8511    2.1241  -33.5646 C   0  0  0  0  0  0  0  0  0  0  0  0
  -26.8056    1.5409  -32.5832 C   0  0  0  0  0  0  0  0  0  0  0  0
  -26.8986    2.6949  -31.8020 C   0  0  0  0  0  0  0  0  0  0  0  0
  -25.7176    0.6945  -32.4236 C   0  0  0  0  0  0  0  0  0  0  0  0
  -25.0185    2.0581  -30.6346 C   0  0  0  0  0  0  0  0  0  0  0  0
  -24.7632    0.9846  -31.4970 C   0  0  0  0  0  0  0  0  0  0  0  0
  -23.5776    0.1582  -31.3797 C   0  0  0  0  0  0  0  0  0  0  0  0
  -23.2846    6.5616  -31.5853 C   0  0  0  0  0  0  0  0  0  0  0  0
  -23.0185    5.1897  -31.4515 C   0  0  0  0  0  0  0  0  0  0  0  0
  -23.1225    7.2324  -32.7958 C   0  0  0  0  0  0  0  0  0  0  0  0
  -22.7151   -2.0534  -31.3206 C   0  0  0  0  0  0  0  0  0  0  0  0
  -22.7175    6.4863  -33.9110 C   0  0  0  0  0  0  0  0  0  0  0  0
  -22.4708    2.9126  -32.5341 C   0  0  0  0  0  0  0  0  0  0  0  0
  -22.6334    4.4051  -32.5709 C   0  0  0  0  0  0  0  0  0  0  0  0
  -22.4601    5.0731  -33.7989 C   0  0  0  0  0  0  0  0  0  0  0  0
  -22.6144    7.2663  -35.2286 C   0  0  0  0  0  0  0  0  0  0  0  0
  -22.2774    0.7231  -31.2712 C   0  0  0  0  0  0  0  0  0  0  0  0
  -21.4148   -1.4701  -31.1345 C   0  0  0  0  0  0  0  0  0  0  0  0
  -20.4298   -3.6313  -30.6992 C   0  0  0  0  0  0  0  0  0  0  0  0
  -18.9573   -1.6629  -30.6367 C   0  0  0  0  0  0  0  0  0  0  0  0
  -18.6240   -1.8936  -29.1400 C   0  0  0  0  0  0  0  0  0  0  0  0
  -33.4760    1.2203  -34.5865 N   0  0  0  0  0  0  0  0  0  0  0  0
  -29.9240    1.6965  -34.3716 N   0  0  0  0  0  0  0  0  0  0  0  0
  -27.7292    1.2858  -33.5122 N   0  0  0  0  0  0  0  0  0  0  0  0
  -25.9789    2.9507  -30.8360 N   0  0  0  0  0  0  0  0  0  0  0  0
  -23.7563   -1.1840  -31.4139 N   0  0  0  0  0  0  0  0  0  0  0  0
  -22.0284    2.1454  -31.3119 N   0  0  0  0  0  0  0  0  0  0  0  0
  -21.2409   -0.1397  -31.1545 N   0  0  0  0  0  0  0  0  0  0  0  0
  -21.4240    7.9270  -35.5292 N   0  0  0  0  0  0  0  0  0  0  0  0
  -20.2564   -2.2690  -31.0301 N   0  0  0  0  0  0  0  0  0  0  0  0
  -18.1291   -0.7201  -28.4074 N   0  0  0  0  0  0  0  0  0  0  0  0
  1  3  1  0
  1 27  1  0
  2  4  1  0
  3 28  1  0
  4  5  1  0
  4 28  1  0
  6 28  1  0
  6 29  1  0
  7  8  1  0
  7  9  1  0
  7 29  2  3
  8 30  1  0
  9 11  2  0
 10 11  1  0
 10 30  2  0
 11 12  1  0
 12 22  1  0
 12 31  2  0
 13 14  2  0
 13 15  1  0
 14 19  1  0
 15 17  2  0
 16 23  2  0
 16 31  1  0
 17 20  1  0
 17 21  1  0
 18 19  1  0
 18 32  2  3
 19 20  2  0
 21 34  1  0
 22 32  1  0
 22 33  2  0
 23 33  1  0
 23 35  1  0
 24 35  1  0
 25 26  1  0
 25 35  1  0
 26 36  1  0
M  END
$$$$

     RDKit          3D

 31 35  0  0  0  0  0  0  0  0999 V2000
  -31.8078    1.1181  -34.6403 C   0  0  0  0  0  0  0  0  0  0  0  0
  -30.1708   -0.3836  -34.2519 C   0  0  0  0  0  0  0  0  0  0  0  0
  -29.2189   -1.4955  -34.2510 C   0  0  0  0  0  0  0  0  0  0  0  0
  -28.2699    0.2830  -33.0806 C   0  0  0  0  0  0  0  0  0  0  0  0
  -28.0248   -1.0218  -33.5623 C   0  0  0  0  0  0  0  0  0  0  0  0
  -26.2110    0.9737  -31.8386 C   0  0  0  0  0  0  0  0  0  0  0  0
  -25.6387   -0.2858  -31.4877 C   0  0  0  0  0  0  0  0  0  0  0  0
  -25.4334    2.2027  -31.6219 C   0  0  0  0  0  0  0  0  0  0  0  0
  -24.2042   -0.3174  -31.3454 C   0  0  0  0  0  0  0  0  0  0  0  0
  -23.7672    4.5104  -32.1889 C   0  0  0  0  0  0  0  0  0  0  0  0
  -23.4340    0.8786  -31.3265 C   0  0  0  0  0  0  0  0  0  0  0  0
  -23.2191    3.3558  -31.4702 C   0  0  0  0  0  0  0  0  0  0  0  0
  -22.9885    5.4706  -32.9809 C   0  0  0  0  0  0  0  0  0  0  0  0
  -23.1673    7.6806  -33.9547 C   0  0  0  0  0  0  0  0  0  0  0  0
  -22.3460   -1.7060  -31.1529 C   0  0  0  0  0  0  0  0  0  0  0  0
  -22.2688    4.9857  -34.2158 C   0  0  0  0  0  0  0  0  0  0  0  0
  -21.9590    7.4305  -34.8139 C   0  0  0  0  0  0  0  0  0  0  0  0
  -21.8053   -3.0092  -31.0755 C   0  0  0  0  0  0  0  0  0  0  0  0
  -21.8058    5.9879  -35.1764 C   0  0  0  0  0  0  0  0  0  0  0  0
  -21.5596   -0.5316  -31.1462 C   0  0  0  0  0  0  0  0  0  0  0  0
  -20.3904   -3.1396  -30.8891 C   0  0  0  0  0  0  0  0  0  0  0  0
  -20.1926   -0.7198  -31.0022 C   0  0  0  0  0  0  0  0  0  0  0  0
  -19.6219   -1.9655  -30.8573 C   0  0  0  0  0  0  0  0  0  0  0  0
  -26.0847    3.2747  -31.6112 O   0  0  0  0  0  0  0  0  0  0  0  0
  -31.4596   -0.4542  -34.7599 N   0  0  0  0  0  0  0  0  0  0  0  0
  -29.5852    0.6824  -33.5478 N   0  0  0  0  0  0  0  0  0  0  0  0
  -27.4741    1.0862  -32.3144 N   0  0  0  0  0  0  0  0  0  0  0  0
  -24.0318    2.1401  -31.4706 N   0  0  0  0  0  0  0  0  0  0  0  0
  -23.8232    6.6279  -33.3383 N   0  0  0  0  0  0  0  0  0  0  0  0
  -23.6385   -1.5269  -31.2670 N   0  0  0  0  0  0  0  0  0  0  0  0
  -22.1190    0.7150  -31.2321 N   0  0  0  0  0  0  0  0  0  0  0  0
  1 25  1  0
  2  3  1  0
  2 25  2  3
  2 26  1  0
  3  5  1  0
  4  5  1  0
  4 26  1  0
  4 27  2  3
  6  7  1  0
  6  8  1  0
  6 27  1  0
  7  9  2  0
  8 24  2  0
  8 28  1  0
  9 11  1  0
  9 30  1  0
 10 12  1  0
 10 13  1  0
 11 28  1  0
 11 31  2  0
 12 28  1  0
 13 16  1  0
 13 29  1  0
 14 17  1  0
 14 29  1  0
 15 18  1  0
 15 20  1  0
 15 30  2  0
 16 19  2  0
 17 19  1  0
 18 21  1  0
 20 22  2  0
 20 31  1  0
 21 23  2  0
 22 23  1  0
M  END
$$$$

     RDKit          3D

 34 37  0  0  0  0  0  0  0  0999 V2000
  -28.0856   -1.6988  -32.0662 C   0  0  0  0  0  0  0  0  0  0  0  0
  -28.1915    2.2975  -35.6804 C   0  0  0  0  0  0  0  0  0  0  0  0
  -27.7062    0.7117  -33.8390 C   0  0  0  0  0  0  0  0  0  0  0  0
  -27.4707    3.6028  -37.8342 C   0  0  0  0  0  0  0  0  0  0  0  0
  -27.2256    2.9722  -36.4889 C   0  0  0  0  0  0  0  0  0  0  0  0
  -26.8038   -0.9514  -32.1819 C   0  0  0  0  0  0  0  0  0  0  0  0
  -26.6417    0.1398  -33.0690 C   0  0  0  0  0  0  0  0  0  0  0  0
  -26.5488    6.2072  -35.2748 C   0  0  0  0  0  0  0  0  0  0  0  0
  -26.2137    4.1223  -38.4709 C   0  0  0  0  0  0  0  0  0  0  0  0
  -26.1058    2.0599  -35.0018 C   0  0  0  0  0  0  0  0  0  0  0  0
  -25.9517    5.3527  -33.0446 C   0  0  0  0  0  0  0  0  0  0  0  0
  -25.5911    3.1398  -39.4810 C   0  0  0  0  0  0  0  0  0  0  0  0
  -25.6081    5.9408  -34.2827 C   0  0  0  0  0  0  0  0  0  0  0  0
  -25.3064    0.6415  -33.2397 C   0  0  0  0  0  0  0  0  0  0  0  0
  -25.0087    1.6371  -34.1728 C   0  0  0  0  0  0  0  0  0  0  0  0
  -24.5677   -0.8209  -31.5975 C   0  0  0  0  0  0  0  0  0  0  0  0
  -24.2595    6.1870  -34.6178 C   0  0  0  0  0  0  0  0  0  0  0  0
  -24.1344    6.7973  -35.9334 C   0  0  0  0  0  0  0  0  0  0  0  0
  -23.5764   -1.4296  -30.7257 C   0  0  0  0  0  0  0  0  0  0  0  0
  -23.5884    5.2812  -32.4439 C   0  0  0  0  0  0  0  0  0  0  0  0
  -23.2298    5.8588  -33.6903 C   0  0  0  0  0  0  0  0  0  0  0  0
  -22.2331   -0.9621  -30.7811 C   0  0  0  0  0  0  0  0  0  0  0  0
  -20.7586   -3.5314  -30.8967 C   0  0  0  0  0  0  0  0  0  0  0  0
  -20.5082   -2.4709  -29.8850 C   0  0  0  0  0  0  0  0  0  0  0  0
  -19.7151   -4.5957  -30.6869 C   0  0  0  0  0  0  0  0  0  0  0  0
  -27.3897    1.6881  -34.7607 N   0  0  0  0  0  0  0  0  0  0  0  0
  -25.9905    2.8311  -36.0524 N   0  0  0  0  0  0  0  0  0  0  0  0
  -25.7834   -1.3358  -31.4404 N   0  0  0  0  0  0  0  0  0  0  0  0
  -25.3879    4.9028  -37.6114 N   0  0  0  0  0  0  0  0  0  0  0  0
  -24.9384    5.0617  -32.1907 N   0  0  0  0  0  0  0  0  0  0  0  0
  -24.2641    0.1207  -32.5043 N   0  0  0  0  0  0  0  0  0  0  0  0
  -21.4206   -1.4155  -29.7769 N   0  0  0  0  0  0  0  0  0  0  0  0
  -19.1474   -2.1254  -29.7554 N   0  0  0  0  0  0  0  0  0  0  0  0
  -25.7565    6.6963  -36.6748 S   0  0  0  0  0  0  0  0  0  0  0  0
  1  6  1  0
  2  5  1  0
  2 26  1  0
  3  7  1  0
  3 26  1  0
  4  5  1  0
  4  9  1  0
  5 27  1  0
  6  7  1  0
  6 28  2  0
  7 14  2  0
  8 13  1  0
  8 34  1  0
  9 12  1  0
  9 29  1  0
 10 15  2  0
 10 26  1  0
 10 27  1  0
 11 13  2  0
 11 30  1  0
 13 17  1  0
 14 15  1  0
 14 31  1  0
 16 19  1  0
 16 28  1  0
 16 31  2  0
 17 18  1  0
 17 21  2  0
 19 22  2  3
 20 21  1  0
 20 30  2  0
 22 32  1  0
 23 24  1  0
 23 25  1  0
 24 32  1  0
 24 33  2  0
 29 34  1  0
M  END
$$$$

     RDKit          3D

 25 26  0  0  0  0  0  0  0  0999 V2000
  -30.8920    7.0474  -34.6703 C   0  0  0  0  0  0  0  0  0  0  0  0
  -30.6252    6.3115  -33.4559 C   0  0  0  0  0  0  0  0  0  0  0  0
  -29.8474    7.7060  -35.4626 C   0  0  0  0  0  0  0  0  0  0  0  0
  -29.0445    4.9750  -32.1650 C   0  0  0  0  0  0  0  0  0  0  0  0
  -29.1905    5.9068  -33.2252 C   0  0  0  0  0  0  0  0  0  0  0  0
  -28.7051    2.0415  -33.2396 C   0  0  0  0  0  0  0  0  0  0  0  0
  -28.3064    7.5062  -34.9727 C   0  0  0  0  0  0  0  0  0  0  0  0
  -28.1126    6.7368  -33.6761 C   0  0  0  0  0  0  0  0  0  0  0  0
  -27.7309    4.3553  -31.9466 C   0  0  0  0  0  0  0  0  0  0  0  0
  -27.6746    2.9924  -32.7955 C   0  0  0  0  0  0  0  0  0  0  0  0
  -26.5326    0.7599  -32.4866 C   0  0  0  0  0  0  0  0  0  0  0  0
  -26.4032    2.2823  -32.4466 C   0  0  0  0  0  0  0  0  0  0  0  0
  -25.2748   -0.0552  -32.8579 C   0  0  0  0  0  0  0  0  0  0  0  0
  -25.0171   -0.2482  -34.2934 C   0  0  0  0  0  0  0  0  0  0  0  0
  -24.1841    0.5662  -32.0323 C   0  0  0  0  0  0  0  0  0  0  0  0
  -23.3083   -1.3598  -30.7809 C   0  0  0  0  0  0  0  0  0  0  0  0
  -23.0312   -0.3988  -31.8286 C   0  0  0  0  0  0  0  0  0  0  0  0
  -22.3029   -2.4691  -30.8814 C   0  0  0  0  0  0  0  0  0  0  0  0
  -21.7481    0.2307  -31.4337 C   0  0  0  0  0  0  0  0  0  0  0  0
  -21.2835    1.3478  -32.3648 C   0  0  0  0  0  0  0  0  0  0  0  0
  -20.9329   -1.9412  -30.8754 C   0  0  0  0  0  0  0  0  0  0  0  0
  -20.2885   -4.4113  -30.4605 C   0  0  0  0  0  0  0  0  0  0  0  0
  -19.9288   -3.0227  -30.9552 C   0  0  0  0  0  0  0  0  0  0  0  0
  -21.4154    2.5754  -32.0285 O   0  0  0  0  0  0  0  0  0  0  0  0
  -20.7254   -0.7412  -31.3687 O   0  0  0  0  0  0  0  0  0  0  0  0
  1  2  1  0
  1  3  2  0
  2  5  1  0
  3  7  1  0
  4  5  1  0
  4  9  1  0
  5  8  1  0
  6 10  1  0
  7  8  1  0
  9 10  1  0
 10 12  1  0
 11 12  1  0
 11 13  1  0
 13 14  1  0
 13 15  1  0
 15 17  1  0
 16 17  1  0
 16 18  1  0
 17 19  1  0
 18 21  1  0
 19 20  1  0
 19 25  1  0
 20 24  2  0
 21 23  1  0
 21 25  1  0
 22 23  1  0
M  END
$$$$

     RDKit          3D

 32 36  0  0  0  0  0  0  0  0999 V2000
  -33.3621    0.2627  -37.1925 C   0  0  0  0  0  0  0  0  0  0  0  0
  -30.8967   -0.6563  -36.0983 C   0  0  0  0  0  0  0  0  0  0  0  0
  -30.4708   -1.8627  -35.5198 C   0  0  0  0  0  0  0  0  0  0  0  0
  -30.2457    0.5216  -35.6989 C   0  0  0  0  0  0  0  0  0  0  0  0
  -29.4480   -1.8887  -34.5359 C   0  0  0  0  0  0  0  0  0  0  0  0
  -29.2330    0.4780  -34.7332 C   0  0  0  0  0  0  0  0  0  0  0  0
  -28.7615   -0.7169  -34.1613 C   0  0  0  0  0  0  0  0  0  0  0  0
  -27.6494   -1.4504  -32.0466 C   0  0  0  0  0  0  0  0  0  0  0  0
  -27.6407   -0.7428  -33.1989 C   0  0  0  0  0  0  0  0  0  0  0  0
  -26.4857   -0.0243  -33.5018 C   0  0  0  0  0  0  0  0  0  0  0  0
  -25.4573   -0.8526  -31.4476 C   0  0  0  0  0  0  0  0  0  0  0  0
  -25.4031   -0.0804  -32.6255 C   0  0  0  0  0  0  0  0  0  0  0  0
  -24.1980    0.5820  -32.9105 C   0  0  0  0  0  0  0  0  0  0  0  0
  -24.1681    6.0578  -33.9009 C   0  0  0  0  0  0  0  0  0  0  0  0
  -24.0892    7.0817  -32.9772 C   0  0  0  0  0  0  0  0  0  0  0  0
  -23.2124    5.0631  -33.9826 C   0  0  0  0  0  0  0  0  0  0  0  0
  -23.1994   -0.2508  -30.8782 C   0  0  0  0  0  0  0  0  0  0  0  0
  -23.1153    0.5145  -32.0772 C   0  0  0  0  0  0  0  0  0  0  0  0
  -23.0306    7.0148  -32.0243 C   0  0  0  0  0  0  0  0  0  0  0  0
  -22.3443    1.8570  -33.7018 C   0  0  0  0  0  0  0  0  0  0  0  0
  -22.1440    5.0043  -33.1217 C   0  0  0  0  0  0  0  0  0  0  0  0
  -22.0982    5.9696  -32.0874 C   0  0  0  0  0  0  0  0  0  0  0  0
  -31.8006   -0.6542  -37.0825 O   0  0  0  0  0  0  0  0  0  0  0  0
  -24.9896    8.0776  -33.1031 O   0  0  0  0  0  0  0  0  0  0  0  0
  -21.4745    3.3369  -35.7264 O   0  0  0  0  0  0  0  0  0  0  0  0
  -19.7960    2.1816  -34.2909 O   0  0  0  0  0  0  0  0  0  0  0  0
  -26.6192   -1.5011  -31.1808 N   0  0  0  0  0  0  0  0  0  0  0  0
  -24.3982   -0.9026  -30.5969 N   0  0  0  0  0  0  0  0  0  0  0  0
  -22.0659    1.2446  -32.5272 N   0  0  0  0  0  0  0  0  0  0  0  0
  -21.0379    4.1284  -33.3139 N   0  0  0  0  0  0  0  0  0  0  0  0
  -23.8563    1.5594  -34.2499 S   0  0  0  0  0  0  0  0  0  0  0  0
  -21.1228    2.8724  -34.3955 S   0  0  0  0  0  0  0  0  0  0  0  0
  1 23  1  0
  2  3  2  0
  2  4  1  0
  2 23  1  0
  3  5  1  0
  4  6  2  0
  5  7  2  0
  6  7  1  0
  7  9  1  0
  8  9  1  0
  8 27  2  0
  9 10  2  0
 10 12  1  0
 11 12  1  0
 11 27  1  0
 11 28  2  0
 12 13  1  0
 13 18  2  0
 13 31  1  0
 14 15  2  0
 14 16  1  0
 15 19  1  0
 15 24  1  0
 16 21  2  0
 17 18  1  0
 17 28  1  0
 18 29  1  0
 19 22  2  0
 20 29  1  0
 20 31  1  0
 20 32  1  0
 21 22  1  0
 21 30  1  0
 25 32  1  0
 26 32  1  0
 30 32  1  0
M  END
$$$$

     RDKit          3D

 56 60  0  0  0  0  0  0  0  0999 V2000
  -31.4116   -0.4739  -35.3686 C   0  0  0  0  0  0  0  0  0  0  0  0
  -30.8988    0.2129  -34.0706 C   0  0  0  0  0  0  0  0  0  0  0  0
  -30.6804    1.7915  -34.1932 C   0  0  0  0  0  0  0  0  0  0  0  0
  -30.1321    2.8289  -33.3351 C   0  0  0  0  0  0  0  0  0  0  0  0
  -28.9516    3.6952  -33.8962 C   0  0  0  0  0  0  0  0  0  0  0  0
  -28.5177    0.8183  -33.9308 C   0  0  0  0  0  0  0  0  0  0  0  0
  -28.2652    4.5047  -32.7561 C   0  0  0  0  0  0  0  0  0  0  0  0
  -28.1708   -0.6096  -33.7927 C   0  0  0  0  0  0  0  0  0  0  0  0
  -28.0472    2.8943  -36.1957 C   0  0  0  0  0  0  0  0  0  0  0  0
  -27.8358    2.9572  -34.6732 C   0  0  0  0  0  0  0  0  0  0  0  0
  -27.0063    3.7120  -36.9401 C   0  0  0  0  0  0  0  0  0  0  0  0
  -26.9391   -0.7448  -33.0436 C   0  0  0  0  0  0  0  0  0  0  0  0
  -26.6221    8.5090  -34.2034 C   0  0  0  0  0  0  0  0  0  0  0  0
  -26.4362   -0.6051  -31.7320 C   0  0  0  0  0  0  0  0  0  0  0  0
  -26.3083    7.4832  -33.1761 C   0  0  0  0  0  0  0  0  0  0  0  0
  -26.1556    1.7612  -30.9676 C   0  0  0  0  0  0  0  0  0  0  0  0
  -25.8481   -0.2219  -33.9448 C   0  0  0  0  0  0  0  0  0  0  0  0
  -25.4687    0.4637  -31.1955 C   0  0  0  0  0  0  0  0  0  0  0  0
  -25.4432    2.9930  -31.1931 C   0  0  0  0  0  0  0  0  0  0  0  0
  -25.4165    6.3002  -33.4734 C   0  0  0  0  0  0  0  0  0  0  0  0
  -24.8506    5.6266  -32.3260 C   0  0  0  0  0  0  0  0  0  0  0  0
  -24.5590   -0.0572  -33.4469 C   0  0  0  0  0  0  0  0  0  0  0  0
  -24.5004    3.0426  -32.3048 C   0  0  0  0  0  0  0  0  0  0  0  0
  -24.1884    0.4541  -32.0997 C   0  0  0  0  0  0  0  0  0  0  0  0
  -23.9726    3.9683  -35.6456 C   0  0  0  0  0  0  0  0  0  0  0  0
  -23.8181    2.4344  -36.1297 C   0  0  0  0  0  0  0  0  0  0  0  0
  -23.9394    4.4421  -32.6064 C   0  0  0  0  0  0  0  0  0  0  0  0
  -23.5044    1.8438  -32.1955 C   0  0  0  0  0  0  0  0  0  0  0  0
  -23.5221    4.5465  -34.1439 C   0  0  0  0  0  0  0  0  0  0  0  0
  -23.3644   -0.5497  -31.3227 C   0  0  0  0  0  0  0  0  0  0  0  0
  -23.3807    6.7641  -30.6944 C   0  0  0  0  0  0  0  0  0  0  0  0
  -23.3373    8.0834  -29.9271 C   0  0  0  0  0  0  0  0  0  0  0  0
  -22.7116   -1.9576  -31.3109 C   0  0  0  0  0  0  0  0  0  0  0  0
  -22.8392    4.9163  -29.1121 C   0  0  0  0  0  0  0  0  0  0  0  0
  -22.6227    0.1746  -30.2914 C   0  0  0  0  0  0  0  0  0  0  0  0
  -22.3336    5.7338  -30.2849 C   0  0  0  0  0  0  0  0  0  0  0  0
  -22.1622    4.2163  -26.8615 C   0  0  0  0  0  0  0  0  0  0  0  0
  -22.0799    5.3113  -27.8524 C   0  0  0  0  0  0  0  0  0  0  0  0
  -21.3347    1.5204  -28.5579 C   0  0  0  0  0  0  0  0  0  0  0  0
  -21.1927   -1.7806  -30.8534 C   0  0  0  0  0  0  0  0  0  0  0  0
  -21.1893   -0.2304  -30.4753 C   0  0  0  0  0  0  0  0  0  0  0  0
  -20.9164    3.3579  -26.9134 C   0  0  0  0  0  0  0  0  0  0  0  0
  -20.5091    0.3400  -29.2444 C   0  0  0  0  0  0  0  0  0  0  0  0
  -20.6899    2.8329  -28.2303 C   0  0  0  0  0  0  0  0  0  0  0  0
  -19.2442    0.5676  -31.2842 C   0  0  0  0  0  0  0  0  0  0  0  0
  -19.1802    0.9421  -29.7128 C   0  0  0  0  0  0  0  0  0  0  0  0
  -30.8397   -1.6632  -35.7256 O   0  0  0  0  0  0  0  0  0  0  0  0
  -29.7008    0.9815  -34.5824 O   0  0  0  0  0  0  0  0  0  0  0  0
  -27.5329    1.7146  -34.1236 O   0  0  0  0  0  0  0  0  0  0  0  0
  -27.2483    5.1167  -36.8823 O   0  0  0  0  0  0  0  0  0  0  0  0
  -26.6185    3.4429  -38.1544 O   0  0  0  0  0  0  0  0  0  0  0  0
  -23.0950    7.1951  -32.0942 O   0  0  0  0  0  0  0  0  0  0  0  0
  -21.1303    6.2382  -30.1082 O   0  0  0  0  0  0  0  0  0  0  0  0
  -20.8542   -2.7061  -29.8479 O   0  0  0  0  0  0  0  0  0  0  0  0
  -20.6612    0.3837  -31.6929 O   0  0  0  0  0  0  0  0  0  0  0  0
  -20.5796    4.0953  -25.9959 O   0  0  0  0  0  0  0  0  0  0  0  0
  1  2  1  0
  1 47  1  0
  2  3  1  0
  3  4  1  0
  3 48  1  0
  4  5  1  0
  5  7  1  0
  5 10  1  0
  6  8  1  0
  6 48  1  0
  6 49  1  0
  8 12  1  0
  9 10  1  0
  9 11  1  0
 10 49  1  0
 11 50  1  0
 11 51  1  0
 12 14  1  0
 12 17  1  0
 13 15  1  0
 14 18  1  0
 15 20  1  0
 16 18  1  0
 16 19  1  0
 17 22  1  0
 18 24  1  0
 19 23  1  0
 20 21  2  3
 21 27  1  0
 22 24  1  0
 23 27  1  0
 23 28  1  0
 24 28  1  0
 24 30  1  0
 25 26  1  0
 25 29  1  0
 27 29  1  0
 30 33  1  0
 30 35  1  0
 31 32  1  0
 31 36  1  0
 31 52  1  0
 33 40  1  0
 34 36  1  0
 34 38  1  0
 35 41  1  0
 36 53  1  0
 37 38  1  0
 37 42  1  0
 39 43  1  0
 39 44  1  0
 40 41  1  0
 40 54  1  0
 41 43  1  0
 41 55  1  0
 42 44  1  0
 42 56  1  0
 43 46  1  0
 45 46  1  0
 45 55  1  0
M  END
$$$$

     RDKit          3D

 47 47  0  0  0  0  0  0  0  0999 V2000
  -31.3251   -0.3921  -35.6179 C   0  0  0  0  0  0  0  0  0  0  0  0
  -30.7624    1.0439  -35.4829 C   0  0  0  0  0  0  0  0  0  0  0  0
  -30.2136    1.4039  -34.1160 C   0  0  0  0  0  0  0  0  0  0  0  0
  -29.4608    3.6304  -33.4006 C   0  0  0  0  0  0  0  0  0  0  0  0
  -29.2838    2.5627  -34.3443 C   0  0  0  0  0  0  0  0  0  0  0  0
  -29.0976   -0.3189  -32.9559 C   0  0  0  0  0  0  0  0  0  0  0  0
  -28.3448    3.9486  -32.4897 C   0  0  0  0  0  0  0  0  0  0  0  0
  -28.1309    3.6046  -36.5431 C   0  0  0  0  0  0  0  0  0  0  0  0
  -27.1291   -0.5616  -33.8669 C   0  0  0  0  0  0  0  0  0  0  0  0
  -26.7798    3.5002  -36.9736 C   0  0  0  0  0  0  0  0  0  0  0  0
  -26.8640    5.0051  -31.3227 C   0  0  0  0  0  0  0  0  0  0  0  0
  -26.3976    5.8447  -35.6668 C   0  0  0  0  0  0  0  0  0  0  0  0
  -26.0175    2.0497  -35.3081 C   0  0  0  0  0  0  0  0  0  0  0  0
  -26.1771    3.8445  -31.3519 C   0  0  0  0  0  0  0  0  0  0  0  0
  -26.0841    4.6037  -35.0897 C   0  0  0  0  0  0  0  0  0  0  0  0
  -25.7199    3.4085  -35.8604 C   0  0  0  0  0  0  0  0  0  0  0  0
  -25.6691   -0.3413  -34.2452 C   0  0  0  0  0  0  0  0  0  0  0  0
  -25.3974    1.0735  -34.5990 C   0  0  0  0  0  0  0  0  0  0  0  0
  -24.7336    4.0360  -31.6288 C   0  0  0  0  0  0  0  0  0  0  0  0
  -24.3594    3.6330  -36.4939 C   0  0  0  0  0  0  0  0  0  0  0  0
  -24.1024    4.1875  -30.2696 C   0  0  0  0  0  0  0  0  0  0  0  0
  -23.2072    2.9390  -30.0608 C   0  0  0  0  0  0  0  0  0  0  0  0
  -23.1881    3.6838  -35.5519 C   0  0  0  0  0  0  0  0  0  0  0  0
  -23.0837    5.7533  -32.6043 C   0  0  0  0  0  0  0  0  0  0  0  0
  -22.7494   -0.9309  -30.0680 C   0  0  0  0  0  0  0  0  0  0  0  0
  -22.6494    2.4941  -31.4094 C   0  0  0  0  0  0  0  0  0  0  0  0
  -22.3274    5.0439  -33.7354 C   0  0  0  0  0  0  0  0  0  0  0  0
  -21.9425    3.8451  -36.2815 C   0  0  0  0  0  0  0  0  0  0  0  0
  -21.8662    3.7999  -31.7109 C   0  0  0  0  0  0  0  0  0  0  0  0
  -21.5316   -0.4211  -30.5934 C   0  0  0  0  0  0  0  0  0  0  0  0
  -21.4553    0.4258  -31.7514 C   0  0  0  0  0  0  0  0  0  0  0  0
  -21.3629    1.9283  -31.4926 C   0  0  0  0  0  0  0  0  0  0  0  0
  -21.3923    4.1618  -32.8853 C   0  0  0  0  0  0  0  0  0  0  0  0
  -20.2272   -2.8143  -30.7104 C   0  0  0  0  0  0  0  0  0  0  0  0
  -20.4375   -0.4568  -29.6094 C   0  0  0  0  0  0  0  0  0  0  0  0
  -19.9263   -5.3521  -30.8716 C   0  0  0  0  0  0  0  0  0  0  0  0
  -19.9108   -1.8342  -29.5618 C   0  0  0  0  0  0  0  0  0  0  0  0
  -19.3602    0.5506  -30.1805 C   0  0  0  0  0  0  0  0  0  0  0  0
  -30.4969    4.1955  -33.0350 O   0  0  0  0  0  0  0  0  0  0  0  0
  -27.5199   -0.1873  -32.7530 O   0  0  0  0  0  0  0  0  0  0  0  0
  -24.4067    4.8440  -37.2066 O   0  0  0  0  0  0  0  0  0  0  0  0
  -24.3538    5.2088  -32.3491 O   0  0  0  0  0  0  0  0  0  0  0  0
  -23.3625    4.1918  -34.3297 O   0  0  0  0  0  0  0  0  0  0  0  0
  -21.6444    2.9698  -33.1003 O   0  0  0  0  0  0  0  0  0  0  0  0
  -20.1780    2.1510  -30.9260 O   0  0  0  0  0  0  0  0  0  0  0  0
  -28.1267    4.8567  -31.6986 N   0  0  0  0  0  0  0  0  0  0  0  0
  -20.4360   -4.1365  -30.0683 N   0  0  0  0  0  0  0  0  0  0  0  0
  1  2  1  0
  2  3  1  0
  3  5  1  0
  4  5  1  0
  4  7  1  0
  4 39  2  0
  6 40  1  0
  7 46  2  3
  8 10  1  0
  9 17  1  0
  9 40  1  0
 10 16  1  0
 11 14  1  0
 11 46  1  0
 12 15  1  0
 13 16  1  0
 13 18  2  3
 14 19  1  0
 15 16  1  0
 16 20  1  0
 17 18  1  0
 19 21  1  0
 19 42  1  0
 20 23  1  0
 20 41  1  0
 21 22  1  0
 22 26  1  0
 23 28  1  0
 23 43  1  0
 24 27  1  0
 24 42  1  0
 25 30  1  0
 26 29  1  0
 26 32  1  0
 27 33  1  0
 27 43  1  0
 29 33  1  0
 30 31  1  0
 30 35  1  0
 31 32  1  0
 32 45  1  0
 33 44  1  0
 34 37  1  0
 34 47  1  0
 35 37  1  0
 35 38  1  0
 36 47  1  0
M  END
$$$$

     RDKit          3D

 33 37  0  0  0  0  0  0  0  0999 V2000
  -29.8205   -2.1820  -34.8398 C   0  0  0  0  0  0  0  0  0  0  0  0
  -28.9547   -0.0502  -34.4618 C   0  0  0  0  0  0  0  0  0  0  0  0
  -28.4663    1.2305  -34.6178 C   0  0  0  0  0  0  0  0  0  0  0  0
  -28.3892   -0.9970  -33.5821 C   0  0  0  0  0  0  0  0  0  0  0  0
  -27.2468   -0.6669  -32.8339 C   0  0  0  0  0  0  0  0  0  0  0  0
  -27.2979    1.5607  -33.8979 C   0  0  0  0  0  0  0  0  0  0  0  0
  -26.6544    0.6206  -33.0523 C   0  0  0  0  0  0  0  0  0  0  0  0
  -24.3448   -0.6392  -31.4658 C   0  0  0  0  0  0  0  0  0  0  0  0
  -24.3824    0.6083  -32.2012 C   0  0  0  0  0  0  0  0  0  0  0  0
  -24.2916    4.5505  -33.5348 C   0  0  0  0  0  0  0  0  0  0  0  0
  -23.8385    5.7651  -35.7489 C   0  0  0  0  0  0  0  0  0  0  0  0
  -23.5393    5.5476  -34.3779 C   0  0  0  0  0  0  0  0  0  0  0  0
  -23.1548   -1.2784  -30.9995 C   0  0  0  0  0  0  0  0  0  0  0  0
  -23.1411    1.2095  -32.5904 C   0  0  0  0  0  0  0  0  0  0  0  0
  -22.4857    6.3451  -33.7740 C   0  0  0  0  0  0  0  0  0  0  0  0
  -22.1633    7.4823  -35.8156 C   0  0  0  0  0  0  0  0  0  0  0  0
  -21.8955   -0.5707  -31.2888 C   0  0  0  0  0  0  0  0  0  0  0  0
  -21.9428    0.7097  -31.9594 C   0  0  0  0  0  0  0  0  0  0  0  0
  -20.7329    1.4865  -31.9974 C   0  0  0  0  0  0  0  0  0  0  0  0
  -20.5605   -1.1102  -30.8503 C   0  0  0  0  0  0  0  0  0  0  0  0
  -19.6560   -4.6794  -30.6248 C   0  0  0  0  0  0  0  0  0  0  0  0
  -19.5226    1.0345  -31.4743 C   0  0  0  0  0  0  0  0  0  0  0  0
  -19.2466   -3.2458  -30.7426 C   0  0  0  0  0  0  0  0  0  0  0  0
  -19.4291   -0.2540  -30.9492 C   0  0  0  0  0  0  0  0  0  0  0  0
  -29.9781   -0.6602  -35.1442 O   0  0  0  0  0  0  0  0  0  0  0  0
  -29.0223   -2.1516  -33.6091 O   0  0  0  0  0  0  0  0  0  0  0  0
  -25.5042    4.7364  -33.1435 O   0  0  0  0  0  0  0  0  0  0  0  0
  -20.3854   -2.3210  -30.2758 O   0  0  0  0  0  0  0  0  0  0  0  0
  -25.5400    1.1065  -32.5749 N   0  0  0  0  0  0  0  0  0  0  0  0
  -23.5838    3.5782  -32.8973 N   0  0  0  0  0  0  0  0  0  0  0  0
  -23.2230    6.8482  -36.3967 N   0  0  0  0  0  0  0  0  0  0  0  0
  -23.1958    2.4068  -33.3370 N   0  0  0  0  0  0  0  0  0  0  0  0
  -21.8232    7.2512  -34.4942 N   0  0  0  0  0  0  0  0  0  0  0  0
  1 25  1  0
  1 26  1  0
  2  3  2  0
  2  4  1  0
  2 25  1  0
  3  6  1  0
  4  5  2  0
  4 26  1  0
  5  7  1  0
  6  7  2  0
  7 29  1  0
  8  9  2  0
  8 13  1  0
  9 14  1  0
  9 29  1  0
 10 12  1  0
 10 27  2  0
 10 30  1  0
 11 12  2  0
 11 31  1  0
 12 15  1  0
 13 17  2  0
 14 18  2  0
 14 32  1  0
 15 33  2  0
 16 31  2  0
 16 33  1  0
 17 18  1  0
 17 20  1  0
 18 19  1  0
 19 22  2  0
 20 24  2  0
 20 28  1  0
 21 23  1  0
 22 24  1  0
 23 28  1  0
 30 32  1  0
M  END
$$$$

     RDKit          3D

 33 38  0  0  0  0  0  0  0  0999 V2000
  -31.3035   -2.2499  -36.4464 C   0  0  0  0  0  0  0  0  0  0  0  0
  -30.7811   -0.1524  -35.8159 C   0  0  0  0  0  0  0  0  0  0  0  0
  -30.0760   -1.0682  -34.9796 C   0  0  0  0  0  0  0  0  0  0  0  0
  -28.9026   -0.7805  -34.1373 C   0  0  0  0  0  0  0  0  0  0  0  0
  -28.6553   -1.3050  -32.8818 C   0  0  0  0  0  0  0  0  0  0  0  0
  -27.3302   -1.0354  -32.3987 C   0  0  0  0  0  0  0  0  0  0  0  0
  -26.5001   -0.3276  -33.3056 C   0  0  0  0  0  0  0  0  0  0  0  0
  -25.7110    8.4399  -33.1366 C   0  0  0  0  0  0  0  0  0  0  0  0
  -25.3994    8.5984  -34.5634 C   0  0  0  0  0  0  0  0  0  0  0  0
  -25.1684   -0.1500  -32.9675 C   0  0  0  0  0  0  0  0  0  0  0  0
  -24.7971    6.7249  -31.3743 C   0  0  0  0  0  0  0  0  0  0  0  0
  -24.9098    7.3580  -32.6556 C   0  0  0  0  0  0  0  0  0  0  0  0
  -24.4103    7.6356  -34.9019 C   0  0  0  0  0  0  0  0  0  0  0  0
  -24.1433    6.8785  -33.7347 C   0  0  0  0  0  0  0  0  0  0  0  0
  -23.8698    5.6286  -31.1778 C   0  0  0  0  0  0  0  0  0  0  0  0
  -23.3420   -0.5146  -31.3409 C   0  0  0  0  0  0  0  0  0  0  0  0
  -23.2154    5.7694  -33.6067 C   0  0  0  0  0  0  0  0  0  0  0  0
  -23.0784    5.1986  -32.3159 C   0  0  0  0  0  0  0  0  0  0  0  0
  -22.8180    0.7596  -31.0612 C   0  0  0  0  0  0  0  0  0  0  0  0
  -22.5994   -1.6866  -31.2821 C   0  0  0  0  0  0  0  0  0  0  0  0
  -22.4370    2.9380  -31.3153 C   0  0  0  0  0  0  0  0  0  0  0  0
  -22.1781    4.0285  -32.2387 C   0  0  0  0  0  0  0  0  0  0  0  0
  -21.2133   -1.5272  -30.8651 C   0  0  0  0  0  0  0  0  0  0  0  0
  -20.6915   -0.1819  -30.7239 C   0  0  0  0  0  0  0  0  0  0  0  0
  -19.1648    0.1712  -30.9054 C   0  0  0  0  0  0  0  0  0  0  0  0
  -31.5451   -0.8613  -36.7642 N   0  0  0  0  0  0  0  0  0  0  0  0
  -30.3647   -2.3120  -35.4256 N   0  0  0  0  0  0  0  0  0  0  0  0
  -26.8434   -1.4656  -31.2132 N   0  0  0  0  0  0  0  0  0  0  0  0
  -25.6141   -1.2748  -30.9007 N   0  0  0  0  0  0  0  0  0  0  0  0
  -24.7180   -0.6710  -31.7534 N   0  0  0  0  0  0  0  0  0  0  0  0
  -23.3458    1.9624  -31.4195 N   0  0  0  0  0  0  0  0  0  0  0  0
  -21.5189    0.8605  -30.6561 N   0  0  0  0  0  0  0  0  0  0  0  0
  -21.1818    2.2752  -30.7829 N   0  0  0  0  0  0  0  0  0  0  0  0
  1 26  1  0
  1 27  1  0
  2  3  1  0
  2 26  1  0
  3  4  1  0
  3 27  1  0
  4  5  1  0
  5  6  1  0
  6  7  1  0
  6 28  2  0
  7 10  2  0
  8  9  1  0
  8 12  1  0
  9 13  1  0
 10 30  1  0
 11 12  1  0
 11 15  2  0
 12 14  2  0
 13 14  1  0
 14 17  1  0
 15 18  1  0
 16 19  1  0
 16 20  2  0
 16 30  1  0
 17 18  2  0
 18 22  1  0
 19 31  1  0
 19 32  1  0
 20 23  1  0
 21 22  1  0
 21 31  2  0
 21 33  1  0
 23 24  1  0
 24 25  1  0
 24 32  1  0
 28 29  1  0
 29 30  1  0
 32 33  1  0
M  END
$$$$

     RDKit          3D

 54 58  0  0  0  0  0  0  0  0999 V2000
  -29.0841   -0.7117  -32.9962 C   0  0  0  0  0  0  0  0  0  0  0  0
  -28.7319    1.7125  -35.4616 C   0  0  0  0  0  0  0  0  0  0  0  0
  -28.9048    2.7273  -33.0471 C   0  0  0  0  0  0  0  0  0  0  0  0
  -28.6234    1.5894  -33.9324 C   0  0  0  0  0  0  0  0  0  0  0  0
  -28.2421   -0.3369  -34.0042 C   0  0  0  0  0  0  0  0  0  0  0  0
  -28.1442    2.7800  -36.3448 C   0  0  0  0  0  0  0  0  0  0  0  0
  -28.0049    4.6970  -31.7489 C   0  0  0  0  0  0  0  0  0  0  0  0
  -27.8196    3.4260  -32.4282 C   0  0  0  0  0  0  0  0  0  0  0  0
  -26.6405    2.9811  -36.1030 C   0  0  0  0  0  0  0  0  0  0  0  0
  -26.3569    2.9347  -32.6236 C   0  0  0  0  0  0  0  0  0  0  0  0
  -25.9477    2.0725  -31.4115 C   0  0  0  0  0  0  0  0  0  0  0  0
  -25.6804   -0.3659  -31.2959 C   0  0  0  0  0  0  0  0  0  0  0  0
  -25.3658    3.7409  -36.1579 C   0  0  0  0  0  0  0  0  0  0  0  0
  -25.4303    5.0330  -36.9501 C   0  0  0  0  0  0  0  0  0  0  0  0
  -24.5242    2.3297  -31.0698 C   0  0  0  0  0  0  0  0  0  0  0  0
  -24.2724   -0.1730  -31.0938 C   0  0  0  0  0  0  0  0  0  0  0  0
  -24.3413    3.6100  -30.3267 C   0  0  0  0  0  0  0  0  0  0  0  0
  -23.7479    1.1863  -30.7367 C   0  0  0  0  0  0  0  0  0  0  0  0
  -23.9539    1.6498  -35.9787 C   0  0  0  0  0  0  0  0  0  0  0  0
  -23.6237    2.8505  -39.2706 C   0  0  0  0  0  0  0  0  0  0  0  0
  -23.5515    6.8375  -33.3021 C   0  0  0  0  0  0  0  0  0  0  0  0
  -23.0536    3.6822  -36.8557 C   0  0  0  0  0  0  0  0  0  0  0  0
  -23.0093    4.1365  -29.9276 C   0  0  0  0  0  0  0  0  0  0  0  0
  -23.1702    5.4503  -33.3987 C   0  0  0  0  0  0  0  0  0  0  0  0
  -22.4977    1.2719  -30.1552 C   0  0  0  0  0  0  0  0  0  0  0  0
  -22.4322    1.4807  -36.0165 C   0  0  0  0  0  0  0  0  0  0  0  0
  -22.2945    4.9595  -31.3487 C   0  0  0  0  0  0  0  0  0  0  0  0
  -22.1093   -1.0612  -31.0927 C   0  0  0  0  0  0  0  0  0  0  0  0
  -22.0059    2.9653  -35.9345 C   0  0  0  0  0  0  0  0  0  0  0  0
  -22.1650    3.4472  -34.4721 C   0  0  0  0  0  0  0  0  0  0  0  0
  -22.1885    4.9449  -34.3425 C   0  0  0  0  0  0  0  0  0  0  0  0
  -21.5495    0.1283  -30.2454 C   0  0  0  0  0  0  0  0  0  0  0  0
  -21.6802    5.7117  -35.4428 C   0  0  0  0  0  0  0  0  0  0  0  0
  -21.0800    2.0478  -32.6639 C   0  0  0  0  0  0  0  0  0  0  0  0
  -20.1986    0.6932  -30.6298 C   0  0  0  0  0  0  0  0  0  0  0  0
  -20.0628    1.4217  -31.9825 C   0  0  0  0  0  0  0  0  0  0  0  0
  -19.7261    1.7907  -29.6327 C   0  0  0  0  0  0  0  0  0  0  0  0
  -18.7514    2.2320  -31.8519 C   0  0  0  0  0  0  0  0  0  0  0  0
  -18.6554    2.5072  -30.4096 C   0  0  0  0  0  0  0  0  0  0  0  0
  -30.0957    1.7196  -35.6675 O   0  0  0  0  0  0  0  0  0  0  0  0
  -29.6585    1.8242  -33.1806 O   0  0  0  0  0  0  0  0  0  0  0  0
  -26.3846    0.7734  -31.5666 O   0  0  0  0  0  0  0  0  0  0  0  0
  -26.1947   -1.4974  -31.1212 O   0  0  0  0  0  0  0  0  0  0  0  0
  -25.4395    4.4107  -30.3264 O   0  0  0  0  0  0  0  0  0  0  0  0
  -24.4733    5.9901  -37.1644 O   0  0  0  0  0  0  0  0  0  0  0  0
  -24.3079    2.9052  -36.6101 O   0  0  0  0  0  0  0  0  0  0  0  0
  -23.5094   -1.2685  -30.7895 O   0  0  0  0  0  0  0  0  0  0  0  0
  -23.0865    4.8042  -32.2583 O   0  0  0  0  0  0  0  0  0  0  0  0
  -22.6449    3.4788  -38.4544 O   0  0  0  0  0  0  0  0  0  0  0  0
  -22.1528    6.2952  -31.1648 O   0  0  0  0  0  0  0  0  0  0  0  0
  -21.4875   -0.5049  -28.9401 O   0  0  0  0  0  0  0  0  0  0  0  0
  -21.2259    2.6660  -33.7287 O   0  0  0  0  0  0  0  0  0  0  0  0
  -21.0129    4.5359  -31.5006 O   0  0  0  0  0  0  0  0  0  0  0  0
  -20.6803    3.0820  -36.3690 O   0  0  0  0  0  0  0  0  0  0  0  0
  1  5  1  0
  2  4  1  0
  2  6  1  0
  2 40  1  0
  3  8  1  0
  3 41  1  0
  4  5  1  0
  4 41  1  0
  6  9  1  0
  7  8  1  0
  8 10  1  0
  9 13  1  0
 10 11  1  0
 11 15  1  0
 11 42  1  0
 12 16  1  0
 12 42  1  0
 12 43  2  0
 13 14  1  0
 13 46  1  0
 14 45  1  0
 15 17  1  0
 15 18  1  0
 16 18  1  0
 16 47  1  0
 17 23  1  0
 17 44  1  0
 18 25  1  0
 19 26  1  0
 19 46  1  0
 20 49  1  0
 21 24  1  0
 22 29  1  0
 22 49  1  0
 23 27  1  0
 24 31  1  0
 24 48  1  0
 25 32  1  0
 26 29  1  0
 27 48  1  0
 27 50  1  0
 27 53  1  0
 28 32  1  0
 28 47  1  0
 29 30  1  0
 29 54  1  0
 30 31  1  0
 30 52  1  0
 31 33  1  0
 32 35  1  0
 32 51  1  0
 34 36  1  0
 34 52  1  0
 35 36  1  0
 35 37  1  0
 36 38  1  0
 37 39  1  0
 38 39  1  0
M  END
$$$$

     RDKit          3D

 63 67  0  0  0  0  0  0  0  0999 V2000
  -31.7850    2.1766  -36.8972 C   0  0  0  0  0  0  0  0  0  0  0  0
  -30.4229    1.5656  -36.6161 C   0  0  0  0  0  0  0  0  0  0  0  0
  -30.0841    1.1005  -35.1995 C   0  0  0  0  0  0  0  0  0  0  0  0
  -30.1081    4.0670  -36.6992 C   0  0  0  0  0  0  0  0  0  0  0  0
  -29.4319    2.6774  -37.0234 C   0  0  0  0  0  0  0  0  0  0  0  0
  -29.3954    5.2830  -36.3455 C   0  0  0  0  0  0  0  0  0  0  0  0
  -29.1871   -1.3565  -34.2341 C   0  0  0  0  0  0  0  0  0  0  0  0
  -28.5444   -0.4155  -33.2633 C   0  0  0  0  0  0  0  0  0  0  0  0
  -28.6020    1.4048  -35.0142 C   0  0  0  0  0  0  0  0  0  0  0  0
  -27.8781    0.5735  -34.0724 C   0  0  0  0  0  0  0  0  0  0  0  0
  -26.9773    2.4490  -31.9552 C   0  0  0  0  0  0  0  0  0  0  0  0
  -26.4476    0.8952  -33.7710 C   0  0  0  0  0  0  0  0  0  0  0  0
  -26.2573    1.1198  -32.2808 C   0  0  0  0  0  0  0  0  0  0  0  0
  -26.3435    5.2739  -38.2220 C   0  0  0  0  0  0  0  0  0  0  0  0
  -25.9278    3.8714  -38.4824 C   0  0  0  0  0  0  0  0  0  0  0  0
  -25.5780   -0.2562  -34.2563 C   0  0  0  0  0  0  0  0  0  0  0  0
  -25.6136    5.7265  -36.9220 C   0  0  0  0  0  0  0  0  0  0  0  0
  -25.3020    5.5559  -34.7994 C   0  0  0  0  0  0  0  0  0  0  0  0
  -24.8156    1.1471  -31.8622 C   0  0  0  0  0  0  0  0  0  0  0  0
  -24.7552    3.5021  -37.5721 C   0  0  0  0  0  0  0  0  0  0  0  0
  -24.5484    2.0882  -30.6683 C   0  0  0  0  0  0  0  0  0  0  0  0
  -24.2313   -0.1718  -31.3511 C   0  0  0  0  0  0  0  0  0  0  0  0
  -24.3750    4.8121  -36.8233 C   0  0  0  0  0  0  0  0  0  0  0  0
  -24.1875    2.4315  -39.7707 C   0  0  0  0  0  0  0  0  0  0  0  0
  -23.6914    2.9358  -38.4862 C   0  0  0  0  0  0  0  0  0  0  0  0
  -23.2147    2.7331  -30.8641 C   0  0  0  0  0  0  0  0  0  0  0  0
  -23.3724    4.0510  -31.5842 C   0  0  0  0  0  0  0  0  0  0  0  0
  -22.7461    5.4700  -34.9554 C   0  0  0  0  0  0  0  0  0  0  0  0
  -22.9388    5.6017  -33.4678 C   0  0  0  0  0  0  0  0  0  0  0  0
  -22.7326    5.6832  -26.1686 C   0  0  0  0  0  0  0  0  0  0  0  0
  -22.6846    1.9296  -38.2658 C   0  0  0  0  0  0  0  0  0  0  0  0
  -22.6419    2.8629  -29.5065 C   0  0  0  0  0  0  0  0  0  0  0  0
  -22.6083    4.3135  -32.8082 C   0  0  0  0  0  0  0  0  0  0  0  0
  -22.5260    5.3539  -27.6243 C   0  0  0  0  0  0  0  0  0  0  0  0
  -22.5018    6.8460  -32.8320 C   0  0  0  0  0  0  0  0  0  0  0  0
  -21.8835   -0.7535  -30.7567 C   0  0  0  0  0  0  0  0  0  0  0  0
  -21.5175   -2.1871  -31.1619 C   0  0  0  0  0  0  0  0  0  0  0  0
  -21.5247    3.8356  -29.3345 C   0  0  0  0  0  0  0  0  0  0  0  0
  -21.5017    4.2616  -27.9014 C   0  0  0  0  0  0  0  0  0  0  0  0
  -21.0151    1.1336  -29.3538 C   0  0  0  0  0  0  0  0  0  0  0  0
  -20.7044    0.1866  -30.5210 C   0  0  0  0  0  0  0  0  0  0  0  0
  -20.9714    0.4222  -26.7557 C   0  0  0  0  0  0  0  0  0  0  0  0
  -20.3182   -4.1254  -30.5787 C   0  0  0  0  0  0  0  0  0  0  0  0
  -20.2344   -2.6573  -30.9680 C   0  0  0  0  0  0  0  0  0  0  0  0
  -20.4345    0.5017  -28.0974 C   0  0  0  0  0  0  0  0  0  0  0  0
  -19.3945   -0.5148  -29.9929 C   0  0  0  0  0  0  0  0  0  0  0  0
  -19.2374   -0.3397  -28.4485 C   0  0  0  0  0  0  0  0  0  0  0  0
  -19.1786   -1.9548  -30.3738 C   0  0  0  0  0  0  0  0  0  0  0  0
  -32.1397    1.9573  -38.2998 O   0  0  0  0  0  0  0  0  0  0  0  0
  -30.1488   -0.3913  -35.1017 O   0  0  0  0  0  0  0  0  0  0  0  0
  -26.4017    5.5863  -35.8281 O   0  0  0  0  0  0  0  0  0  0  0  0
  -25.7621    3.5526  -39.8138 O   0  0  0  0  0  0  0  0  0  0  0  0
  -25.1578    2.5704  -36.6082 O   0  0  0  0  0  0  0  0  0  0  0  0
  -24.9331   -1.0517  -30.8540 O   0  0  0  0  0  0  0  0  0  0  0  0
  -24.1012    4.6810  -35.4237 O   0  0  0  0  0  0  0  0  0  0  0  0
  -24.0514    4.9830  -30.8858 O   0  0  0  0  0  0  0  0  0  0  0  0
  -23.2709    1.7380  -40.8772 O   0  0  0  0  0  0  0  0  0  0  0  0
  -22.9307   -0.2536  -31.5898 O   0  0  0  0  0  0  0  0  0  0  0  0
  -22.1674    3.2791  -33.4887 O   0  0  0  0  0  0  0  0  0  0  0  0
  -22.0903    6.5953  -35.6395 O   0  0  0  0  0  0  0  0  0  0  0  0
  -19.7960   -3.0547  -29.6896 O   0  0  0  0  0  0  0  0  0  0  0  0
  -22.3450    1.5287  -29.0762 N   0  0  0  0  0  0  0  0  0  0  0  0
  -22.2074    1.7013  -39.5911 N   0  0  0  0  0  0  0  0  0  0  0  0
  1  2  1  0
  1 49  1  0
  2  3  1  0
  2  5  1  0
  3  9  1  0
  3 50  1  0
  4  5  1  0
  4  6  1  0
  7  8  1  0
  7 50  1  0
  8 10  1  0
  9 10  2  0
 10 12  1  0
 11 13  1  0
 12 13  1  0
 12 16  1  0
 13 19  1  0
 14 15  1  0
 14 17  1  0
 15 20  1  0
 15 52  1  0
 17 23  1  0
 17 51  1  0
 18 51  1  0
 19 21  1  0
 19 22  1  0
 20 23  1  0
 20 25  1  0
 20 53  1  0
 21 26  1  0
 22 54  2  0
 22 58  1  0
 23 55  1  0
 24 25  1  0
 24 57  1  0
 25 31  1  0
 26 27  1  0
 26 32  1  0
 27 33  1  0
 27 56  1  0
 28 29  1  0
 28 55  1  0
 28 60  2  0
 29 33  1  0
 29 35  1  0
 30 34  1  0
 31 63  1  0
 32 38  1  0
 32 62  1  0
 33 59  1  0
 34 39  1  0
 36 37  1  0
 36 41  1  0
 36 58  1  0
 37 44  1  0
 38 39  1  0
 40 41  1  0
 40 45  1  0
 40 62  1  0
 41 46  1  0
 42 45  1  0
 43 44  1  0
 44 48  1  0
 44 61  1  0
 45 47  1  0
 46 47  1  0
 46 48  1  0
M  END
$$$$

     RDKit          3D

 59 61  0  0  0  0  0  0  0  0999 V2000
  -29.7366   -0.2631  -33.9432 C   0  0  0  0  0  0  0  0  0  0  0  0
  -29.8255    3.4749  -36.7892 C   0  0  0  0  0  0  0  0  0  0  0  0
  -29.6668    3.7238  -35.2933 C   0  0  0  0  0  0  0  0  0  0  0  0
  -29.5010    5.1722  -35.0863 C   0  0  0  0  0  0  0  0  0  0  0  0
  -28.5535    2.9854  -34.6153 C   0  0  0  0  0  0  0  0  0  0  0  0
  -28.4857    3.3880  -33.1534 C   0  0  0  0  0  0  0  0  0  0  0  0
  -28.4110    0.2541  -33.4516 C   0  0  0  0  0  0  0  0  0  0  0  0
  -27.9833    1.8582  -35.1076 C   0  0  0  0  0  0  0  0  0  0  0  0
  -27.8259   -1.5326  -31.7060 C   0  0  0  0  0  0  0  0  0  0  0  0
  -27.4348   -0.6966  -32.8844 C   0  0  0  0  0  0  0  0  0  0  0  0
  -27.4497    4.7526  -30.7819 C   0  0  0  0  0  0  0  0  0  0  0  0
  -26.6549    3.7532  -35.9816 C   0  0  0  0  0  0  0  0  0  0  0  0
  -26.6155    4.0374  -38.8023 C   0  0  0  0  0  0  0  0  0  0  0  0
  -26.6502    3.9711  -31.6935 C   0  0  0  0  0  0  0  0  0  0  0  0
  -25.9738   -0.1929  -32.8717 C   0  0  0  0  0  0  0  0  0  0  0  0
  -25.9651    4.6435  -37.6281 C   0  0  0  0  0  0  0  0  0  0  0  0
  -25.9210    6.1147  -37.5298 C   0  0  0  0  0  0  0  0  0  0  0  0
  -25.7979    6.6999  -36.1825 C   0  0  0  0  0  0  0  0  0  0  0  0
  -25.4806    3.7279  -36.6654 C   0  0  0  0  0  0  0  0  0  0  0  0
  -25.3978   -0.4503  -34.3017 C   0  0  0  0  0  0  0  0  0  0  0  0
  -25.1991    3.9554  -31.4460 C   0  0  0  0  0  0  0  0  0  0  0  0
  -25.1878    6.9172  -33.3576 C   0  0  0  0  0  0  0  0  0  0  0  0
  -24.5228    1.6727  -32.0584 C   0  0  0  0  0  0  0  0  0  0  0  0
  -24.5066    7.1640  -35.7125 C   0  0  0  0  0  0  0  0  0  0  0  0
  -24.4259    3.1904  -32.4480 C   0  0  0  0  0  0  0  0  0  0  0  0
  -24.1918    6.6232  -34.3755 C   0  0  0  0  0  0  0  0  0  0  0  0
  -23.5860    4.0712  -30.4745 C   0  0  0  0  0  0  0  0  0  0  0  0
  -23.2646    3.2667  -33.3141 C   0  0  0  0  0  0  0  0  0  0  0  0
  -22.5848   -0.7380  -31.1184 C   0  0  0  0  0  0  0  0  0  0  0  0
  -22.5741    5.8794  -31.8234 C   0  0  0  0  0  0  0  0  0  0  0  0
  -22.3111    4.3907  -31.3116 C   0  0  0  0  0  0  0  0  0  0  0  0
  -21.9914    3.6325  -32.5906 C   0  0  0  0  0  0  0  0  0  0  0  0
  -22.1358    5.8356  -33.2339 C   0  0  0  0  0  0  0  0  0  0  0  0
  -21.9301    6.8321  -35.4822 C   0  0  0  0  0  0  0  0  0  0  0  0
  -21.1189    2.4271  -32.3300 C   0  0  0  0  0  0  0  0  0  0  0  0
  -21.1178    4.3572  -30.3569 C   0  0  0  0  0  0  0  0  0  0  0  0
  -20.6856    0.6362  -30.7880 C   0  0  0  0  0  0  0  0  0  0  0  0
  -20.4387    0.9089  -25.4768 C   0  0  0  0  0  0  0  0  0  0  0  0
  -19.8784   -3.5465  -30.3693 C   0  0  0  0  0  0  0  0  0  0  0  0
  -20.1453    2.2474  -33.4779 C   0  0  0  0  0  0  0  0  0  0  0  0
  -19.8261   -1.9220  -28.7128 C   0  0  0  0  0  0  0  0  0  0  0  0
  -19.4691   -1.2930  -26.3056 C   0  0  0  0  0  0  0  0  0  0  0  0
  -19.4330   -2.4387  -29.8887 C   0  0  0  0  0  0  0  0  0  0  0  0
  -19.4464    0.1842  -30.0233 C   0  0  0  0  0  0  0  0  0  0  0  0
  -19.0117   -1.2157  -30.2157 C   0  0  0  0  0  0  0  0  0  0  0  0
  -19.1892   -0.0146  -25.5652 C   0  0  0  0  0  0  0  0  0  0  0  0
  -18.8404   -1.5095  -27.6648 C   0  0  0  0  0  0  0  0  0  0  0  0
  -27.9511    1.1913  -34.1088 O   0  0  0  0  0  0  0  0  0  0  0  0
  -27.1951    3.2090  -35.3512 O   0  0  0  0  0  0  0  0  0  0  0  0
  -27.1571    3.4858  -32.7891 O   0  0  0  0  0  0  0  0  0  0  0  0
  -25.7393    1.1663  -32.5375 O   0  0  0  0  0  0  0  0  0  0  0  0
  -24.7939    4.9677  -30.7773 O   0  0  0  0  0  0  0  0  0  0  0  0
  -23.4634   -1.5040  -30.7461 O   0  0  0  0  0  0  0  0  0  0  0  0
  -21.6822    1.4796  -31.6038 O   0  0  0  0  0  0  0  0  0  0  0  0
  -21.4288   -0.9648  -31.2999 O   0  0  0  0  0  0  0  0  0  0  0  0
  -21.4211    4.6946  -33.4367 O   0  0  0  0  0  0  0  0  0  0  0  0
  -21.1779   -1.6320  -28.4936 O   0  0  0  0  0  0  0  0  0  0  0  0
  -19.5454    0.8991  -31.1743 O   0  0  0  0  0  0  0  0  0  0  0  0
  -22.6036    6.6340  -34.2153 N   0  0  0  0  0  0  0  0  0  0  0  0
  1  7  1  0
  2  3  1  0
  3  4  1  0
  3  5  1  0
  5  6  1  0
  5  8  1  0
  5 49  1  0
  6 50  1  0
  7 10  1  0
  7 48  1  0
  8 48  1  0
  9 10  1  0
 10 15  1  0
 11 14  1  0
 12 19  1  0
 12 49  1  0
 13 16  1  0
 14 21  1  0
 14 50  1  0
 15 20  1  0
 15 51  1  0
 16 17  1  0
 16 19  1  0
 17 18  1  0
 18 24  1  0
 21 25  1  0
 21 52  1  0
 22 26  1  0
 23 25  1  0
 23 51  1  0
 24 26  1  0
 25 28  1  0
 27 31  1  0
 27 52  1  0
 28 32  1  0
 29 53  2  0
 29 55  1  0
 30 31  1  0
 30 33  1  0
 31 32  1  0
 31 36  1  0
 32 35  1  0
 32 56  1  0
 33 56  1  0
 33 59  1  0
 34 59  1  0
 35 40  1  0
 35 54  1  0
 37 54  1  0
 37 55  1  0
 37 58  1  0
 38 46  1  0
 39 43  2  0
 41 43  1  0
 41 47  1  0
 41 57  1  0
 42 46  1  0
 42 47  1  0
 43 45  1  0
 44 45  1  0
 44 58  1  0
M  END
$$$$

     RDKit          3D

 30 32  0  0  0  0  0  0  0  0999 V2000
  -27.7549    1.2648  -34.5989 C   0  0  0  0  0  0  0  0  0  0  0  0
  -27.6390    0.2212  -33.6964 C   0  0  0  0  0  0  0  0  0  0  0  0
  -27.5347    2.8847  -37.1650 C   0  0  0  0  0  0  0  0  0  0  0  0
  -27.6995    3.9359  -38.1002 C   0  0  0  0  0  0  0  0  0  0  0  0
  -27.0854    5.1722  -37.8721 C   0  0  0  0  0  0  0  0  0  0  0  0
  -26.7702    3.0601  -36.0121 C   0  0  0  0  0  0  0  0  0  0  0  0
  -26.6385    1.9577  -35.0334 C   0  0  0  0  0  0  0  0  0  0  0  0
  -26.6160    7.5291  -35.5610 C   0  0  0  0  0  0  0  0  0  0  0  0
  -26.4361   -0.0367  -33.1292 C   0  0  0  0  0  0  0  0  0  0  0  0
  -26.2778    5.3554  -36.7636 C   0  0  0  0  0  0  0  0  0  0  0  0
  -26.1338    4.3198  -35.8364 C   0  0  0  0  0  0  0  0  0  0  0  0
  -25.6067    6.6870  -36.5314 C   0  0  0  0  0  0  0  0  0  0  0  0
  -25.3163    0.6220  -33.5259 C   0  0  0  0  0  0  0  0  0  0  0  0
  -25.3658    1.6504  -34.4848 C   0  0  0  0  0  0  0  0  0  0  0  0
  -25.3059    4.6159  -34.5697 C   0  0  0  0  0  0  0  0  0  0  0  0
  -24.8260    6.7965  -33.4533 C   0  0  0  0  0  0  0  0  0  0  0  0
  -24.2795    6.5066  -35.7573 C   0  0  0  0  0  0  0  0  0  0  0  0
  -24.1880   -0.7180  -31.8643 C   0  0  0  0  0  0  0  0  0  0  0  0
  -24.1577    0.2354  -32.8615 C   0  0  0  0  0  0  0  0  0  0  0  0
  -24.1923    6.9560  -32.0775 C   0  0  0  0  0  0  0  0  0  0  0  0
  -22.8850   -1.3256  -31.3793 C   0  0  0  0  0  0  0  0  0  0  0  0
  -22.5608   -0.8021  -30.0071 C   0  0  0  0  0  0  0  0  0  0  0  0
  -22.0321    0.6468  -29.9772 C   0  0  0  0  0  0  0  0  0  0  0  0
  -21.4178   -1.6390  -29.4691 C   0  0  0  0  0  0  0  0  0  0  0  0
  -20.8748   -1.1011  -28.2329 C   0  0  0  0  0  0  0  0  0  0  0  0
  -25.1706   -0.7049  -30.9331 N   0  0  0  0  0  0  0  0  0  0  0  0
  -24.4947    5.8369  -34.4934 N   0  0  0  0  0  0  0  0  0  0  0  0
  -23.2373    5.5039  -33.8581 N   0  0  0  0  0  0  0  0  0  0  0  0
  -21.4166   -3.0305  -29.6961 N   0  0  0  0  0  0  0  0  0  0  0  0
  -26.2060   -1.2393  -31.8815 S   0  0  0  0  0  0  0  0  0  0  0  0
  1  2  1  0
  1  7  2  0
  2  9  2  0
  3  4  1  0
  3  6  2  0
  4  5  1  0
  5 10  2  0
  6  7  1  0
  6 11  1  0
  7 14  1  0
  8 12  1  0
  9 13  1  0
  9 30  1  0
 10 11  1  0
 10 12  1  0
 11 15  1  0
 12 17  1  0
 13 14  1  0
 13 19  2  0
 16 20  1  0
 16 27  1  0
 17 27  1  0
 18 19  1  0
 18 21  1  0
 18 26  1  0
 21 22  1  0
 22 23  1  0
 22 24  1  0
 24 25  1  0
 24 29  1  0
 26 30  1  0
 27 28  1  0
M  END
$$$$
