
     RDKit          3D

 56 59  0  0  0  0  0  0  0  0999 V2000
  -31.8554    7.4150  -32.4373 C   0  0  0  0  0  0  0  0  0  0  0  0
  -31.7751    7.6716  -29.7563 C   0  0  0  0  0  0  0  0  0  0  0  0
  -31.9269    8.2241  -28.3278 C   0  0  0  0  0  0  0  0  0  0  0  0
  -30.7245    6.4969  -32.1303 C   0  0  0  0  0  0  0  0  0  0  0  0
  -30.7188    7.5901  -27.5708 C   0  0  0  0  0  0  0  0  0  0  0  0
  -30.5555    5.2347  -32.5765 C   0  0  0  0  0  0  0  0  0  0  0  0
  -29.7212    7.1206  -31.1841 C   0  0  0  0  0  0  0  0  0  0  0  0
  -29.6488    7.3510  -28.6721 C   0  0  0  0  0  0  0  0  0  0  0  0
  -29.0846    3.2263  -32.9623 C   0  0  0  0  0  0  0  0  0  0  0  0
  -28.6018    6.1332  -30.8357 C   0  0  0  0  0  0  0  0  0  0  0  0
  -28.1559    5.2828  -32.0427 C   0  0  0  0  0  0  0  0  0  0  0  0
  -27.6236    3.0497  -32.7460 C   0  0  0  0  0  0  0  0  0  0  0  0
  -27.3846    4.0343  -31.6144 C   0  0  0  0  0  0  0  0  0  0  0  0
  -27.1047    1.6970  -32.4479 C   0  0  0  0  0  0  0  0  0  0  0  0
  -25.9134    4.2291  -31.2780 C   0  0  0  0  0  0  0  0  0  0  0  0
  -25.5513    1.7555  -31.9962 C   0  0  0  0  0  0  0  0  0  0  0  0
  -25.3062    2.8841  -30.8722 C   0  0  0  0  0  0  0  0  0  0  0  0
  -25.1993    0.4477  -31.3506 C   0  0  0  0  0  0  0  0  0  0  0  0
  -24.7186    2.0103  -33.2335 C   0  0  0  0  0  0  0  0  0  0  0  0
  -24.0720   -0.3133  -31.9551 C   0  0  0  0  0  0  0  0  0  0  0  0
  -23.9262    2.9646  -30.3469 C   0  0  0  0  0  0  0  0  0  0  0  0
  -23.7818    3.6504  -39.3397 C   0  0  0  0  0  0  0  0  0  0  0  0
  -23.5836   -1.3366  -30.9668 C   0  0  0  0  0  0  0  0  0  0  0  0
  -23.0397    4.3518  -37.1356 C   0  0  0  0  0  0  0  0  0  0  0  0
  -23.0486    6.8992  -34.5211 C   0  0  0  0  0  0  0  0  0  0  0  0
  -22.3928    5.6774  -34.0562 C   0  0  0  0  0  0  0  0  0  0  0  0
  -22.0787   -1.5010  -31.2573 C   0  0  0  0  0  0  0  0  0  0  0  0
  -22.0878    5.4666  -32.6665 C   0  0  0  0  0  0  0  0  0  0  0  0
  -21.8770    4.2443  -36.2468 C   0  0  0  0  0  0  0  0  0  0  0  0
  -21.9487    4.5461  -34.7953 C   0  0  0  0  0  0  0  0  0  0  0  0
  -21.5505    3.1608  -29.0347 C   0  0  0  0  0  0  0  0  0  0  0  0
  -21.4349   -0.8163  -29.0519 C   0  0  0  0  0  0  0  0  0  0  0  0
  -21.3121   -0.4178  -30.4890 C   0  0  0  0  0  0  0  0  0  0  0  0
  -21.2227    1.0267  -27.7155 C   0  0  0  0  0  0  0  0  0  0  0  0
  -21.4236    3.6601  -33.8252 C   0  0  0  0  0  0  0  0  0  0  0  0
  -21.4179    4.2478  -32.5420 C   0  0  0  0  0  0  0  0  0  0  0  0
  -20.9801    2.2946  -34.0759 C   0  0  0  0  0  0  0  0  0  0  0  0
  -20.9599    4.0966  -30.0327 C   0  0  0  0  0  0  0  0  0  0  0  0
  -20.7765    1.2633  -26.2468 C   0  0  0  0  0  0  0  0  0  0  0  0
  -20.8007    3.6247  -31.3818 C   0  0  0  0  0  0  0  0  0  0  0  0
  -20.4662    0.3796  -25.3736 C   0  0  0  0  0  0  0  0  0  0  0  0
  -20.6217    2.1206  -28.6025 C   0  0  0  0  0  0  0  0  0  0  0  0
  -20.5462    4.2786  -36.8784 C   0  0  0  0  0  0  0  0  0  0  0  0
  -19.8682   -0.3682  -30.9558 C   0  0  0  0  0  0  0  0  0  0  0  0
  -29.3041    4.6549  -32.6756 O   0  0  0  0  0  0  0  0  0  0  0  0
  -27.3730    6.1374  -32.9071 O   0  0  0  0  0  0  0  0  0  0  0  0
  -27.1095    0.7516  -33.5410 O   0  0  0  0  0  0  0  0  0  0  0  0
  -26.2093   -0.3586  -31.0115 O   0  0  0  0  0  0  0  0  0  0  0  0
  -25.8420    5.1780  -30.1886 O   0  0  0  0  0  0  0  0  0  0  0  0
  -23.5573    7.6280  -33.5867 O   0  0  0  0  0  0  0  0  0  0  0  0
  -22.7859    4.1072  -38.4972 O   0  0  0  0  0  0  0  0  0  0  0  0
  -22.8343    7.3136  -35.6612 O   0  0  0  0  0  0  0  0  0  0  0  0
  -21.6148    1.6316  -34.8785 O   0  0  0  0  0  0  0  0  0  0  0  0
  -20.5615   -0.1475  -28.1790 O   0  0  0  0  0  0  0  0  0  0  0  0
  -19.9990    1.8961  -33.4211 O   0  0  0  0  0  0  0  0  0  0  0  0
  -30.2739    7.6809  -29.9703 N   0  0  0  0  0  0  0  0  0  0  0  0
  1  4  1  0
  2  3  1  0
  2 56  1  0
  3  5  1  0
  4  6  1  0
  4  7  1  0
  5  8  1  0
  6 45  1  0
  7 10  1  0
  7 56  1  0
  8 56  1  0
  9 12  1  0
 10 11  1  0
 11 13  1  0
 11 45  1  0
 11 46  1  0
 12 13  1  0
 12 14  1  0
 13 15  1  0
 14 16  1  0
 14 47  1  0
 15 17  1  0
 15 49  1  0
 16 17  1  0
 16 18  1  0
 16 19  1  0
 17 21  1  0
 18 20  1  0
 18 48  1  0
 20 23  1  0
 22 51  1  0
 23 27  1  0
 24 29  1  0
 24 51  1  0
 25 26  1  0
 25 50  2  0
 25 52  1  0
 26 28  1  0
 26 30  2  0
 27 33  1  0
 28 36  1  0
 29 30  1  0
 29 43  1  0
 30 35  1  0
 31 38  1  0
 31 42  1  0
 32 33  1  0
 32 54  1  0
 33 44  1  0
 34 39  1  0
 34 42  1  0
 34 54  1  0
 35 36  2  0
 35 37  1  0
 36 40  1  0
 37 53  2  0
 37 55  1  0
 38 40  1  0
 39 41  2  0
M  END
$$$$

     RDKit          3D

 45 48  0  0  0  0  0  0  0  0999 V2000
  -32.4954    7.7764  -26.7612 C   0  0  0  0  0  0  0  0  0  0  0  0
  -32.2854    8.6277  -29.4967 C   0  0  0  0  0  0  0  0  0  0  0  0
  -31.2903    7.4412  -27.5946 C   0  0  0  0  0  0  0  0  0  0  0  0
  -31.1834    7.8754  -28.9363 C   0  0  0  0  0  0  0  0  0  0  0  0
  -30.2465    6.7139  -26.9855 C   0  0  0  0  0  0  0  0  0  0  0  0
  -29.9713   -0.6783  -32.9393 C   0  0  0  0  0  0  0  0  0  0  0  0
  -29.9952    7.5240  -29.7006 C   0  0  0  0  0  0  0  0  0  0  0  0
  -29.5406    0.6257  -33.4776 C   0  0  0  0  0  0  0  0  0  0  0  0
  -29.0763    6.4119  -27.7055 C   0  0  0  0  0  0  0  0  0  0  0  0
  -28.9540    6.8122  -29.0709 C   0  0  0  0  0  0  0  0  0  0  0  0
  -28.4519    0.7008  -34.2780 C   0  0  0  0  0  0  0  0  0  0  0  0
  -27.7748    5.2229  -30.3286 C   0  0  0  0  0  0  0  0  0  0  0  0
  -26.9715    0.8925  -34.0792 C   0  0  0  0  0  0  0  0  0  0  0  0
  -27.0907    3.2319  -31.6186 C   0  0  0  0  0  0  0  0  0  0  0  0
  -26.7516    4.4123  -30.7528 C   0  0  0  0  0  0  0  0  0  0  0  0
  -26.6768    2.3960  -33.9814 C   0  0  0  0  0  0  0  0  0  0  0  0
  -26.4166   -0.0930  -33.0598 C   0  0  0  0  0  0  0  0  0  0  0  0
  -26.2534    2.8432  -32.6232 C   0  0  0  0  0  0  0  0  0  0  0  0
  -25.6671    2.9401  -34.9834 C   0  0  0  0  0  0  0  0  0  0  0  0
  -25.4216    4.8572  -30.4281 C   0  0  0  0  0  0  0  0  0  0  0  0
  -24.1868    2.7239  -34.6616 C   0  0  0  0  0  0  0  0  0  0  0  0
  -23.6750    0.3158  -31.1726 C   0  0  0  0  0  0  0  0  0  0  0  0
  -23.6606    0.6572  -35.8097 C   0  0  0  0  0  0  0  0  0  0  0  0
  -23.6264    2.4603  -29.7385 C   0  0  0  0  0  0  0  0  0  0  0  0
  -23.5582    2.9558  -37.0516 C   0  0  0  0  0  0  0  0  0  0  0  0
  -23.3244    2.1320  -35.7750 C   0  0  0  0  0  0  0  0  0  0  0  0
  -22.7507    1.4517  -30.5868 C   0  0  0  0  0  0  0  0  0  0  0  0
  -22.3826    2.3422  -33.0742 C   0  0  0  0  0  0  0  0  0  0  0  0
  -21.7300    2.1376  -35.4618 C   0  0  0  0  0  0  0  0  0  0  0  0
  -21.9435    2.3267  -31.6066 C   0  0  0  0  0  0  0  0  0  0  0  0
  -21.6362    0.8287  -29.6802 C   0  0  0  0  0  0  0  0  0  0  0  0
  -21.3182    2.4560  -34.0931 C   0  0  0  0  0  0  0  0  0  0  0  0
  -20.5065    2.1327  -31.3262 C   0  0  0  0  0  0  0  0  0  0  0  0
  -20.3253    1.5161  -30.0315 C   0  0  0  0  0  0  0  0  0  0  0  0
  -19.9125    2.7321  -33.7718 C   0  0  0  0  0  0  0  0  0  0  0  0
  -19.4444    2.4493  -32.2846 C   0  0  0  0  0  0  0  0  0  0  0  0
  -19.0883    0.8059  -29.5650 C   0  0  0  0  0  0  0  0  0  0  0  0
  -27.7947    6.4398  -29.7677 O   0  0  0  0  0  0  0  0  0  0  0  0
  -26.0116    4.0180  -35.4631 O   0  0  0  0  0  0  0  0  0  0  0  0
  -24.3749   -0.3822  -30.4154 O   0  0  0  0  0  0  0  0  0  0  0  0
  -23.7629    2.4811  -33.3816 O   0  0  0  0  0  0  0  0  0  0  0  0
  -23.4769   -0.1370  -32.3773 O   0  0  0  0  0  0  0  0  0  0  0  0
  -23.2158    2.5812  -38.2283 O   0  0  0  0  0  0  0  0  0  0  0  0
  -20.9152    1.8001  -36.3591 O   0  0  0  0  0  0  0  0  0  0  0  0
  -20.1210    2.8763  -29.8514 O   0  0  0  0  0  0  0  0  0  0  0  0
  1  3  1  0
  2  4  1  0
  3  4  2  0
  3  5  1  0
  4  7  1  0
  5  9  2  0
  6  8  1  0
  7 10  2  0
  8 11  1  0
  9 10  1  0
 10 38  1  0
 11 13  1  0
 12 15  2  3
 12 38  1  0
 13 16  1  0
 13 17  1  0
 14 15  1  0
 14 18  1  0
 15 20  1  0
 16 18  1  0
 16 19  1  0
 19 21  1  0
 19 39  2  0
 21 26  1  0
 21 41  1  0
 22 27  1  0
 22 40  2  0
 22 42  1  0
 23 26  1  0
 24 27  1  0
 25 26  1  0
 25 43  2  0
 26 29  1  0
 27 30  1  0
 27 31  1  0
 28 30  1  0
 28 32  1  0
 28 41  1  0
 29 32  1  0
 29 44  2  0
 30 33  1  0
 31 34  1  0
 32 35  1  0
 33 34  1  0
 33 36  2  0
 34 37  1  0
 34 45  1  0
 35 36  1  0
M  END
$$$$

     RDKit          3D

 36 41  0  0  0  0  0  0  0  0999 V2000
  -29.3807    5.7213  -31.7664 C   0  0  0  0  0  0  0  0  0  0  0  0
  -28.9963    4.5473  -32.4289 C   0  0  0  0  0  0  0  0  0  0  0  0
  -28.5229    6.3265  -30.8443 C   0  0  0  0  0  0  0  0  0  0  0  0
  -27.9048    1.5488  -32.7761 C   0  0  0  0  0  0  0  0  0  0  0  0
  -27.7142    3.9987  -32.1907 C   0  0  0  0  0  0  0  0  0  0  0  0
  -27.2863    5.7656  -30.5892 C   0  0  0  0  0  0  0  0  0  0  0  0
  -27.1968    2.8753  -33.1030 C   0  0  0  0  0  0  0  0  0  0  0  0
  -26.9134    4.6135  -31.2501 C   0  0  0  0  0  0  0  0  0  0  0  0
  -25.7501    2.5032  -32.9608 C   0  0  0  0  0  0  0  0  0  0  0  0
  -25.6928    1.2039  -32.4551 C   0  0  0  0  0  0  0  0  0  0  0  0
  -24.4757    0.6721  -32.0072 C   0  0  0  0  0  0  0  0  0  0  0  0
  -24.3972   -0.6172  -31.3601 C   0  0  0  0  0  0  0  0  0  0  0  0
  -23.2906    1.4115  -32.2606 C   0  0  0  0  0  0  0  0  0  0  0  0
  -23.3309    2.7366  -32.9113 C   0  0  0  0  0  0  0  0  0  0  0  0
  -23.0944   -1.1319  -30.9839 C   0  0  0  0  0  0  0  0  0  0  0  0
  -22.9372   -2.4744  -30.4950 C   0  0  0  0  0  0  0  0  0  0  0  0
  -22.0622    0.9601  -31.7722 C   0  0  0  0  0  0  0  0  0  0  0  0
  -22.0053    3.5434  -33.0571 C   0  0  0  0  0  0  0  0  0  0  0  0
  -22.1686    6.0705  -33.6385 C   0  0  0  0  0  0  0  0  0  0  0  0
  -22.0341    7.1535  -34.5322 C   0  0  0  0  0  0  0  0  0  0  0  0
  -21.9519   -0.3310  -31.2167 C   0  0  0  0  0  0  0  0  0  0  0  0
  -21.8463    4.6971  -34.0640 C   0  0  0  0  0  0  0  0  0  0  0  0
  -21.6414   -2.9821  -30.2427 C   0  0  0  0  0  0  0  0  0  0  0  0
  -21.5829    6.9252  -35.8664 C   0  0  0  0  0  0  0  0  0  0  0  0
  -21.3821    4.4825  -35.4218 C   0  0  0  0  0  0  0  0  0  0  0  0
  -21.2637    5.6295  -36.3198 C   0  0  0  0  0  0  0  0  0  0  0  0
  -20.7532    5.4482  -37.7301 C   0  0  0  0  0  0  0  0  0  0  0  0
  -20.4823   -2.1550  -30.4253 C   0  0  0  0  0  0  0  0  0  0  0  0
  -20.6379   -0.8396  -30.8997 C   0  0  0  0  0  0  0  0  0  0  0  0
  -18.9493    0.6847  -30.1042 C   0  0  0  0  0  0  0  0  0  0  0  0
  -25.4465   -1.3338  -31.0779 O   0  0  0  0  0  0  0  0  0  0  0  0
  -21.1292    3.2193  -35.8821 O   0  0  0  0  0  0  0  0  0  0  0  0
  -19.5411   -0.0630  -31.1752 O   0  0  0  0  0  0  0  0  0  0  0  0
  -26.9352    0.6656  -32.3436 N   0  0  0  0  0  0  0  0  0  0  0  0
  -24.5711    3.1909  -33.3008 N   0  0  0  0  0  0  0  0  0  0  0  0
  -26.2107    6.5513  -29.6705 Cl  0  0  0  0  0  0  0  0  0  0  0  0
  1  2  2  0
  1  3  1  0
  2  5  1  0
  3  6  2  0
  4  7  1  0
  4 34  1  0
  5  7  1  0
  5  8  2  0
  6  8  1  0
  6 36  1  0
  7  9  1  0
  9 10  1  0
  9 35  1  0
 10 11  2  0
 10 34  1  0
 11 12  1  0
 11 13  1  0
 12 15  2  0
 12 31  1  0
 13 14  1  0
 13 17  2  0
 14 18  1  0
 14 35  2  0
 15 16  1  0
 15 21  1  0
 16 23  2  0
 17 21  1  0
 18 22  1  0
 19 20  2  0
 19 22  1  0
 20 24  1  0
 21 29  1  0
 22 25  2  0
 23 28  1  0
 24 26  2  0
 25 26  1  0
 25 32  1  0
 26 27  1  0
 28 29  2  0
 29 33  1  0
 30 33  1  0
M  END
$$$$

     RDKit          3D

 39 42  0  0  0  0  0  0  0  0999 V2000
  -30.4916    7.3506  -28.3131 C   0  0  0  0  0  0  0  0  0  0  0  0
  -30.4941    7.8419  -29.6278 C   0  0  0  0  0  0  0  0  0  0  0  0
  -29.3185    6.7467  -27.7885 C   0  0  0  0  0  0  0  0  0  0  0  0
  -29.3759    7.7176  -30.4299 C   0  0  0  0  0  0  0  0  0  0  0  0
  -28.9488   -1.2185  -32.4575 C   0  0  0  0  0  0  0  0  0  0  0  0
  -28.6678   -0.2315  -33.3816 C   0  0  0  0  0  0  0  0  0  0  0  0
  -28.2116    7.1177  -29.9515 C   0  0  0  0  0  0  0  0  0  0  0  0
  -28.2014    6.6065  -28.6494 C   0  0  0  0  0  0  0  0  0  0  0  0
  -27.9473   -1.7595  -31.6324 C   0  0  0  0  0  0  0  0  0  0  0  0
  -27.3386    0.2420  -33.5658 C   0  0  0  0  0  0  0  0  0  0  0  0
  -26.9675    6.9820  -30.8476 C   0  0  0  0  0  0  0  0  0  0  0  0
  -26.9999    7.8746  -32.0938 C   0  0  0  0  0  0  0  0  0  0  0  0
  -26.7515    5.5006  -31.1784 C   0  0  0  0  0  0  0  0  0  0  0  0
  -26.6613   -1.2943  -31.7944 C   0  0  0  0  0  0  0  0  0  0  0  0
  -26.3497   -0.3179  -32.7484 C   0  0  0  0  0  0  0  0  0  0  0  0
  -25.6380    3.8790  -32.6500 C   0  0  0  0  0  0  0  0  0  0  0  0
  -24.9314    0.0649  -33.0391 C   0  0  0  0  0  0  0  0  0  0  0  0
  -24.6656    1.5783  -32.9073 C   0  0  0  0  0  0  0  0  0  0  0  0
  -24.6869    1.9971  -31.5722 C   0  0  0  0  0  0  0  0  0  0  0  0
  -24.6035    3.2576  -31.6667 C   0  0  0  0  0  0  0  0  0  0  0  0
  -24.6988    3.8113  -33.8363 C   0  0  0  0  0  0  0  0  0  0  0  0
  -23.7280    1.9496  -35.2320 C   0  0  0  0  0  0  0  0  0  0  0  0
  -22.9625    2.8792  -36.1601 C   0  0  0  0  0  0  0  0  0  0  0  0
  -22.5524    2.4649  -37.4943 C   0  0  0  0  0  0  0  0  0  0  0  0
  -22.3549   -2.4423  -31.0611 C   0  0  0  0  0  0  0  0  0  0  0  0
  -22.2477   -1.0632  -31.1807 C   0  0  0  0  0  0  0  0  0  0  0  0
  -21.7782    3.4641  -38.1175 C   0  0  0  0  0  0  0  0  0  0  0  0
  -21.1288   -3.1942  -30.8262 C   0  0  0  0  0  0  0  0  0  0  0  0
  -21.0184   -0.3771  -31.2561 C   0  0  0  0  0  0  0  0  0  0  0  0
  -20.8039    0.9624  -31.7089 C   0  0  0  0  0  0  0  0  0  0  0  0
  -19.9333   -2.5116  -30.7390 C   0  0  0  0  0  0  0  0  0  0  0  0
  -19.8976   -1.1759  -30.9010 C   0  0  0  0  0  0  0  0  0  0  0  0
  -31.5833    8.4736  -30.1317 O   0  0  0  0  0  0  0  0  0  0  0  0
  -27.1530    4.6289  -30.4833 O   0  0  0  0  0  0  0  0  0  0  0  0
  -23.9046    0.8217  -35.6262 O   0  0  0  0  0  0  0  0  0  0  0  0
  -21.3502    1.5571  -37.5521 O   0  0  0  0  0  0  0  0  0  0  0  0
  -25.9866    5.2387  -32.3006 N   0  0  0  0  0  0  0  0  0  0  0  0
  -24.3679    2.4180  -34.0798 N   0  0  0  0  0  0  0  0  0  0  0  0
  -23.9630   -0.8045  -31.8563 S   0  0  0  0  0  0  0  0  0  0  0  0
  1  2  2  0
  1  3  1  0
  2  4  1  0
  2 33  1  0
  3  8  2  0
  4  7  2  0
  5  6  2  0
  5  9  1  0
  6 10  1  0
  7  8  1  0
  7 11  1  0
  9 14  2  0
 10 15  2  0
 11 12  1  0
 11 13  1  0
 13 34  2  0
 13 37  1  0
 14 15  1  0
 15 17  1  0
 16 20  1  0
 16 21  1  0
 16 37  1  0
 17 18  1  0
 17 39  1  0
 18 19  1  0
 18 38  1  0
 19 20  1  0
 21 38  1  0
 22 23  1  0
 22 35  2  0
 22 38  1  0
 23 24  1  0
 24 27  1  0
 24 36  1  0
 25 26  2  0
 25 28  1  0
 26 29  1  0
 26 39  1  0
 28 31  2  0
 29 30  1  0
 29 32  2  0
 31 32  1  0
M  END
$$$$

     RDKit          3D

 41 45  0  0  0  0  0  0  0  0999 V2000
  -28.8090    4.6025  -36.8544 C   0  0  0  0  0  0  0  0  0  0  0  0
  -27.4218    5.3154  -30.6008 C   0  0  0  0  0  0  0  0  0  0  0  0
  -27.2379    7.3557  -38.0926 C   0  0  0  0  0  0  0  0  0  0  0  0
  -27.0224    3.7340  -38.2263 C   0  0  0  0  0  0  0  0  0  0  0  0
  -27.1477    6.6085  -31.1072 C   0  0  0  0  0  0  0  0  0  0  0  0
  -26.5628    2.9372  -34.9393 C   0  0  0  0  0  0  0  0  0  0  0  0
  -26.5356    5.6051  -36.5777 C   0  0  0  0  0  0  0  0  0  0  0  0
  -26.2567    1.6855  -34.3470 C   0  0  0  0  0  0  0  0  0  0  0  0
  -26.4057    4.3493  -30.5020 C   0  0  0  0  0  0  0  0  0  0  0  0
  -25.9324    4.1200  -39.1948 C   0  0  0  0  0  0  0  0  0  0  0  0
  -25.8747    6.9555  -31.5104 C   0  0  0  0  0  0  0  0  0  0  0  0
  -25.5918    3.9794  -34.8333 C   0  0  0  0  0  0  0  0  0  0  0  0
  -25.6881    5.2447  -35.4380 C   0  0  0  0  0  0  0  0  0  0  0  0
  -25.0691    4.7220  -30.8820 C   0  0  0  0  0  0  0  0  0  0  0  0
  -24.8493    1.3898  -33.8756 C   0  0  0  0  0  0  0  0  0  0  0  0
  -24.8223    6.0424  -31.3643 C   0  0  0  0  0  0  0  0  0  0  0  0
  -24.5784    6.0033  -34.9159 C   0  0  0  0  0  0  0  0  0  0  0  0
  -23.9513    2.6029  -33.6464 C   0  0  0  0  0  0  0  0  0  0  0  0
  -23.8156    5.1986  -34.0533 C   0  0  0  0  0  0  0  0  0  0  0  0
  -23.6469   -0.2098  -31.5316 C   0  0  0  0  0  0  0  0  0  0  0  0
  -23.2632   -1.5458  -31.6809 C   0  0  0  0  0  0  0  0  0  0  0  0
  -23.4143    6.4410  -31.7378 C   0  0  0  0  0  0  0  0  0  0  0  0
  -22.9462    0.6320  -30.6420 C   0  0  0  0  0  0  0  0  0  0  0  0
  -22.8522    5.6598  -32.9407 C   0  0  0  0  0  0  0  0  0  0  0  0
  -22.2166   -2.0459  -30.8597 C   0  0  0  0  0  0  0  0  0  0  0  0
  -21.9276   -3.4809  -30.9975 C   0  0  0  0  0  0  0  0  0  0  0  0
  -21.9155    0.1456  -29.8723 C   0  0  0  0  0  0  0  0  0  0  0  0
  -21.5267   -1.2085  -30.0076 C   0  0  0  0  0  0  0  0  0  0  0  0
  -20.5659   -3.8033  -30.5465 C   0  0  0  0  0  0  0  0  0  0  0  0
  -20.5068   -1.7857  -29.1413 C   0  0  0  0  0  0  0  0  0  0  0  0
  -27.9213    3.0109  -38.6663 O   0  0  0  0  0  0  0  0  0  0  0  0
  -26.5140    6.8487  -36.9400 O   0  0  0  0  0  0  0  0  0  0  0  0
  -25.8946   -0.7128  -32.6974 O   0  0  0  0  0  0  0  0  0  0  0  0
  -25.6416    1.5324  -31.5009 O   0  0  0  0  0  0  0  0  0  0  0  0
  -22.8668    2.4901  -33.1164 O   0  0  0  0  0  0  0  0  0  0  0  0
  -20.1630   -3.1171  -29.3949 O   0  0  0  0  0  0  0  0  0  0  0  0
  -19.9590   -1.2090  -28.2259 O   0  0  0  0  0  0  0  0  0  0  0  0
  -27.3999    4.7097  -37.2466 N   0  0  0  0  0  0  0  0  0  0  0  0
  -24.4495    3.9012  -34.0825 N   0  0  0  0  0  0  0  0  0  0  0  0
  -25.0929    0.4224  -32.3036 S   0  0  0  0  0  0  0  0  0  0  0  0
  -28.4034    7.6363  -31.2723 Cl  0  0  0  0  0  0  0  0  0  0  0  0
  1 38  1  0
  2  5  2  0
  2  9  1  0
  3 32  1  0
  4 10  1  0
  4 31  2  0
  4 38  1  0
  5 11  1  0
  5 41  1  0
  6  8  1  0
  6 12  2  0
  7 13  1  0
  7 32  1  0
  7 38  1  0
  8 15  1  0
  9 14  2  0
 11 16  2  0
 12 13  1  0
 12 39  1  0
 13 17  1  0
 14 16  1  0
 15 18  1  0
 15 40  1  0
 16 22  1  0
 17 19  1  0
 18 35  2  0
 18 39  1  0
 19 24  1  0
 19 39  1  0
 20 21  2  0
 20 23  1  0
 20 40  1  0
 21 25  1  0
 22 24  1  0
 23 27  2  0
 25 26  1  0
 25 28  2  0
 26 29  1  0
 27 28  1  0
 28 30  1  0
 29 36  1  0
 30 36  1  0
 30 37  2  0
 33 40  1  0
 34 40  1  0
M  END
$$$$

     RDKit          3D

 45 48  0  0  0  0  0  0  0  0999 V2000
  -31.4830    0.3401  -33.8849 C   0  0  0  0  0  0  0  0  0  0  0  0
  -30.5359    0.0979  -35.0802 C   0  0  0  0  0  0  0  0  0  0  0  0
  -29.2350    0.7772  -34.8797 C   0  0  0  0  0  0  0  0  0  0  0  0
  -28.6519   -0.8674  -33.0598 C   0  0  0  0  0  0  0  0  0  0  0  0
  -28.2920    0.1625  -33.9309 C   0  0  0  0  0  0  0  0  0  0  0  0
  -27.7135   -1.4182  -32.1634 C   0  0  0  0  0  0  0  0  0  0  0  0
  -26.9724    0.6065  -33.9382 C   0  0  0  0  0  0  0  0  0  0  0  0
  -26.4143   -0.9514  -32.2088 C   0  0  0  0  0  0  0  0  0  0  0  0
  -26.0217    0.0607  -33.1039 C   0  0  0  0  0  0  0  0  0  0  0  0
  -25.0281    8.0381  -30.2236 C   0  0  0  0  0  0  0  0  0  0  0  0
  -24.5772    0.4963  -33.1231 C   0  0  0  0  0  0  0  0  0  0  0  0
  -24.3286    1.6672  -34.0948 C   0  0  0  0  0  0  0  0  0  0  0  0
  -24.0789    0.7399  -31.7432 C   0  0  0  0  0  0  0  0  0  0  0  0
  -23.8715    3.9298  -34.5612 C   0  0  0  0  0  0  0  0  0  0  0  0
  -23.7334    5.6895  -32.1099 C   0  0  0  0  0  0  0  0  0  0  0  0
  -23.3562    6.4282  -30.8653 C   0  0  0  0  0  0  0  0  0  0  0  0
  -22.8863   -1.1743  -31.4184 C   0  0  0  0  0  0  0  0  0  0  0  0
  -22.6785    5.6052  -33.0896 C   0  0  0  0  0  0  0  0  0  0  0  0
  -21.9636    5.1158  -35.3325 C   0  0  0  0  0  0  0  0  0  0  0  0
  -21.7524    1.1180  -31.2686 C   0  0  0  0  0  0  0  0  0  0  0  0
  -21.7263    1.8057  -29.8318 C   0  0  0  0  0  0  0  0  0  0  0  0
  -21.8186    6.3669  -35.8356 C   0  0  0  0  0  0  0  0  0  0  0  0
  -21.4918   -3.2345  -31.0139 C   0  0  0  0  0  0  0  0  0  0  0  0
  -21.6052   -1.8063  -31.1485 C   0  0  0  0  0  0  0  0  0  0  0  0
  -21.2570    4.0057  -35.7845 C   0  0  0  0  0  0  0  0  0  0  0  0
  -20.9823    6.5808  -36.8901 C   0  0  0  0  0  0  0  0  0  0  0  0
  -20.8670    7.9370  -37.4151 C   0  0  0  0  0  0  0  0  0  0  0  0
  -20.2460   -3.7658  -30.7830 C   0  0  0  0  0  0  0  0  0  0  0  0
  -20.4205   -1.0169  -31.0501 C   0  0  0  0  0  0  0  0  0  0  0  0
  -20.4224    0.4457  -31.3433 C   0  0  0  0  0  0  0  0  0  0  0  0
  -20.4286    4.2172  -36.8520 C   0  0  0  0  0  0  0  0  0  0  0  0
  -20.2843    5.4950  -37.4325 C   0  0  0  0  0  0  0  0  0  0  0  0
  -19.1284   -2.9744  -30.6189 C   0  0  0  0  0  0  0  0  0  0  0  0
  -19.1883   -1.6113  -30.7710 C   0  0  0  0  0  0  0  0  0  0  0  0
  -31.6359    1.4272  -33.5605 O   0  0  0  0  0  0  0  0  0  0  0  0
  -24.7298    1.0503  -30.7601 O   0  0  0  0  0  0  0  0  0  0  0  0
  -24.4633    6.7330  -30.0976 O   0  0  0  0  0  0  0  0  0  0  0  0
  -24.3362    1.4585  -35.3203 O   0  0  0  0  0  0  0  0  0  0  0  0
  -21.7677    6.3885  -32.8678 O   0  0  0  0  0  0  0  0  0  0  0  0
  -20.2077    8.0903  -38.4543 O   0  0  0  0  0  0  0  0  0  0  0  0
  -23.9783    2.8733  -33.6248 N   0  0  0  0  0  0  0  0  0  0  0  0
  -22.8658    0.2189  -31.4965 N   0  0  0  0  0  0  0  0  0  0  0  0
  -22.8799    4.9107  -34.2795 N   0  0  0  0  0  0  0  0  0  0  0  0
  -21.4559    9.0187  -36.8015 N   0  0  0  0  0  0  0  0  0  0  0  0
  -31.1972    0.6648  -36.0562 F   0  0  0  0  0  0  0  0  0  0  0  0
  1  2  1  0
  1 35  2  0
  2  3  1  0
  2 45  1  0
  3  5  1  0
  4  5  2  0
  4  6  1  0
  5  7  1  0
  6  8  2  0
  7  9  2  0
  8  9  1  0
  9 11  1  0
 10 37  1  0
 11 12  1  0
 11 13  1  0
 12 38  2  0
 12 41  1  0
 13 36  2  0
 13 42  1  0
 14 41  1  0
 14 43  1  0
 15 16  1  0
 15 18  1  0
 16 37  1  0
 17 24  2  0
 17 42  1  0
 18 39  2  0
 18 43  1  0
 19 22  2  0
 19 25  1  0
 19 43  1  0
 20 21  1  0
 20 30  1  0
 20 42  1  0
 22 26  1  0
 23 24  1  0
 23 28  2  0
 24 29  1  0
 25 31  2  0
 26 27  1  0
 26 32  2  0
 27 40  2  0
 27 44  1  0
 28 33  1  0
 29 30  1  0
 29 34  1  0
 31 32  1  0
 33 34  2  0
M  END
$$$$

     RDKit          3D

 61 67  0  0  0  0  0  0  0  0999 V2000
  -32.0928    7.2112  -26.1645 C   0  0  0  0  0  0  0  0  0  0  0  0
  -31.3993    0.5842  -33.6046 C   0  0  0  0  0  0  0  0  0  0  0  0
  -30.8581    6.9833  -27.0805 C   0  0  0  0  0  0  0  0  0  0  0  0
  -30.7133    7.7447  -28.2526 C   0  0  0  0  0  0  0  0  0  0  0  0
  -29.8673    6.0881  -26.6941 C   0  0  0  0  0  0  0  0  0  0  0  0
  -29.5483    7.5699  -29.0899 C   0  0  0  0  0  0  0  0  0  0  0  0
  -29.2352    1.5656  -33.3644 C   0  0  0  0  0  0  0  0  0  0  0  0
  -28.6981    5.9349  -27.4885 C   0  0  0  0  0  0  0  0  0  0  0  0
  -28.5135    6.6510  -28.7047 C   0  0  0  0  0  0  0  0  0  0  0  0
  -27.8737    1.3062  -33.8424 C   0  0  0  0  0  0  0  0  0  0  0  0
  -27.2727    0.0439  -33.6024 C   0  0  0  0  0  0  0  0  0  0  0  0
  -27.1286    2.2830  -34.5241 C   0  0  0  0  0  0  0  0  0  0  0  0
  -27.1533    6.3483  -29.4223 C   0  0  0  0  0  0  0  0  0  0  0  0
  -25.9521   -0.2033  -34.0278 C   0  0  0  0  0  0  0  0  0  0  0  0
  -25.7837    2.0280  -34.9098 C   0  0  0  0  0  0  0  0  0  0  0  0
  -25.5676    4.8459  -30.6967 C   0  0  0  0  0  0  0  0  0  0  0  0
  -25.2028    0.8018  -34.6264 C   0  0  0  0  0  0  0  0  0  0  0  0
  -25.1067    1.0465  -30.7421 C   0  0  0  0  0  0  0  0  0  0  0  0
  -25.0990    4.3206  -35.0728 C   0  0  0  0  0  0  0  0  0  0  0  0
  -25.1661    5.6386  -33.2181 C   0  0  0  0  0  0  0  0  0  0  0  0
  -24.7070    2.9582  -35.6179 C   0  0  0  0  0  0  0  0  0  0  0  0
  -24.9342    3.4557  -30.8412 C   0  0  0  0  0  0  0  0  0  0  0  0
  -24.5919    3.0794  -37.2473 C   0  0  0  0  0  0  0  0  0  0  0  0
  -24.4233    6.2454  -32.0634 C   0  0  0  0  0  0  0  0  0  0  0  0
  -23.7828    0.7794  -35.1556 C   0  0  0  0  0  0  0  0  0  0  0  0
  -23.6853    0.9400  -31.2006 C   0  0  0  0  0  0  0  0  0  0  0  0
  -23.2857    2.3123  -35.2407 C   0  0  0  0  0  0  0  0  0  0  0  0
  -23.4439    3.3105  -30.6793 C   0  0  0  0  0  0  0  0  0  0  0  0
  -23.1110   -0.4369  -31.2105 C   0  0  0  0  0  0  0  0  0  0  0  0
  -22.9865    2.3784  -37.6839 C   0  0  0  0  0  0  0  0  0  0  0  0
  -23.0645    6.8111  -32.5002 C   0  0  0  0  0  0  0  0  0  0  0  0
  -22.2001    2.5544  -36.3727 C   0  0  0  0  0  0  0  0  0  0  0  0
  -22.1031    5.1785  -35.8571 C   0  0  0  0  0  0  0  0  0  0  0  0
  -21.5175    3.9551  -36.4821 C   0  0  0  0  0  0  0  0  0  0  0  0
  -21.3110    1.9869  -31.0806 C   0  0  0  0  0  0  0  0  0  0  0  0
  -21.4545    2.4598  -33.6055 C   0  0  0  0  0  0  0  0  0  0  0  0
  -20.8656    0.5346  -31.3137 C   0  0  0  0  0  0  0  0  0  0  0  0
  -20.8080    2.9035  -32.2973 C   0  0  0  0  0  0  0  0  0  0  0  0
  -20.8121    6.4750  -37.4179 C   0  0  0  0  0  0  0  0  0  0  0  0
  -20.6455    2.5000  -29.7894 C   0  0  0  0  0  0  0  0  0  0  0  0
  -20.0288    5.2612  -37.7928 C   0  0  0  0  0  0  0  0  0  0  0  0
  -19.2481    2.8937  -32.4618 C   0  0  0  0  0  0  0  0  0  0  0  0
  -19.1522    2.7542  -29.8236 C   0  0  0  0  0  0  0  0  0  0  0  0
  -18.6468    5.6745  -38.2191 C   0  0  0  0  0  0  0  0  0  0  0  0
  -30.0148    0.5072  -33.2506 O   0  0  0  0  0  0  0  0  0  0  0  0
  -29.6022    2.7242  -33.0871 O   0  0  0  0  0  0  0  0  0  0  0  0
  -26.1724    6.1602  -33.6536 O   0  0  0  0  0  0  0  0  0  0  0  0
  -25.8565    0.0491  -30.5451 O   0  0  0  0  0  0  0  0  0  0  0  0
  -24.6547    4.5605  -33.8114 O   0  0  0  0  0  0  0  0  0  0  0  0
  -22.7402    2.6924  -33.9118 O   0  0  0  0  0  0  0  0  0  0  0  0
  -22.8132    4.1881  -30.1260 O   0  0  0  0  0  0  0  0  0  0  0  0
  -21.7519   -0.3690  -31.6758 O   0  0  0  0  0  0  0  0  0  0  0  0
  -21.5490    6.4684  -36.3353 O   0  0  0  0  0  0  0  0  0  0  0  0
  -20.7666    1.5509  -34.1908 O   0  0  0  0  0  0  0  0  0  0  0  0
  -20.7098    7.4899  -38.1337 O   0  0  0  0  0  0  0  0  0  0  0  0
  -19.6928    0.2040  -31.1015 O   0  0  0  0  0  0  0  0  0  0  0  0
  -32.3647    8.6747  -25.9167 N   0  0  0  0  0  0  0  0  0  0  0  0
  -26.8256    5.1587  -30.1138 N   0  0  0  0  0  0  0  0  0  0  0  0
  -25.6810    2.3205  -30.7077 N   0  0  0  0  0  0  0  0  0  0  0  0
  -22.8265    2.0742  -30.9842 N   0  0  0  0  0  0  0  0  0  0  0  0
  -20.2406    4.1227  -36.9851 N   0  0  0  0  0  0  0  0  0  0  0  0
  1  3  1  0
  1 57  1  0
  2 45  1  0
  3  4  2  0
  3  5  1  0
  4  6  1  0
  5  8  2  0
  6  9  2  0
  7 10  1  0
  7 45  1  0
  7 46  2  0
  8  9  1  0
  9 13  1  0
 10 11  2  0
 10 12  1  0
 11 14  1  0
 12 15  2  0
 13 58  2  3
 14 17  2  0
 15 17  1  0
 15 21  1  0
 16 22  1  0
 16 58  1  0
 17 25  1  0
 18 26  1  0
 18 48  2  0
 18 59  1  0
 19 21  1  0
 19 49  1  0
 20 24  1  0
 20 47  2  0
 20 49  1  0
 21 23  1  0
 21 27  1  0
 22 28  1  0
 22 59  1  0
 23 30  1  0
 24 31  1  0
 25 27  1  0
 26 29  1  0
 26 60  1  0
 27 32  1  0
 27 50  1  0
 28 51  2  0
 28 60  1  0
 29 52  1  0
 30 32  1  0
 32 34  1  0
 33 34  1  0
 33 53  1  0
 34 61  1  0
 35 37  1  0
 35 38  1  0
 35 40  1  0
 35 60  1  0
 36 38  1  0
 36 50  1  0
 36 54  2  0
 37 52  1  0
 37 56  2  0
 38 42  1  0
 39 41  1  0
 39 53  1  0
 39 55  2  0
 40 43  1  0
 41 44  1  0
 41 61  1  0
M  END
$$$$

     RDKit          3D

 41 45  0  0  0  0  0  0  0  0999 V2000
  -32.0778    7.1780  -32.6199 C   0  0  0  0  0  0  0  0  0  0  0  0
  -31.9377    5.7270  -32.8985 C   0  0  0  0  0  0  0  0  0  0  0  0
  -31.0855    8.2868  -30.6790 C   0  0  0  0  0  0  0  0  0  0  0  0
  -30.8625    2.9365  -33.6619 C   0  0  0  0  0  0  0  0  0  0  0  0
  -30.7793    7.6796  -32.0167 C   0  0  0  0  0  0  0  0  0  0  0  0
  -29.9739    1.8451  -33.8583 C   0  0  0  0  0  0  0  0  0  0  0  0
  -30.1656    4.0119  -33.0977 C   0  0  0  0  0  0  0  0  0  0  0  0
  -28.7319    2.3136  -33.4010 C   0  0  0  0  0  0  0  0  0  0  0  0
  -27.9351   -1.0375  -32.8531 C   0  0  0  0  0  0  0  0  0  0  0  0
  -27.7806    4.4749  -32.4802 C   0  0  0  0  0  0  0  0  0  0  0  0
  -27.5264    1.4576  -33.5489 C   0  0  0  0  0  0  0  0  0  0  0  0
  -27.2451    0.3277  -32.5410 C   0  0  0  0  0  0  0  0  0  0  0  0
  -27.2061    4.0300  -31.1208 C   0  0  0  0  0  0  0  0  0  0  0  0
  -25.7194    0.1786  -32.4716 C   0  0  0  0  0  0  0  0  0  0  0  0
  -25.7829    4.3271  -30.9010 C   0  0  0  0  0  0  0  0  0  0  0  0
  -24.9714   -0.8076  -31.5566 C   0  0  0  0  0  0  0  0  0  0  0  0
  -23.4736    4.3019  -31.4171 C   0  0  0  0  0  0  0  0  0  0  0  0
  -23.6859    6.6323  -30.4741 C   0  0  0  0  0  0  0  0  0  0  0  0
  -23.4562   -0.5341  -31.6674 C   0  0  0  0  0  0  0  0  0  0  0  0
  -23.1765    0.8867  -31.1546 C   0  0  0  0  0  0  0  0  0  0  0  0
  -23.1090    1.9409  -32.2767 C   0  0  0  0  0  0  0  0  0  0  0  0
  -22.9657    5.4735  -30.8014 C   0  0  0  0  0  0  0  0  0  0  0  0
  -22.9935    7.6593  -29.8874 C   0  0  0  0  0  0  0  0  0  0  0  0
  -22.6224   -1.5215  -30.8505 C   0  0  0  0  0  0  0  0  0  0  0  0
  -22.6226    3.2089  -31.6011 C   0  0  0  0  0  0  0  0  0  0  0  0
  -21.6174    5.5549  -30.3947 C   0  0  0  0  0  0  0  0  0  0  0  0
  -21.2777   -3.5317  -30.8517 C   0  0  0  0  0  0  0  0  0  0  0  0
  -21.3515   -1.8289  -31.1318 C   0  0  0  0  0  0  0  0  0  0  0  0
  -21.2630    3.2960  -31.1609 C   0  0  0  0  0  0  0  0  0  0  0  0
  -20.7905    4.4524  -30.5772 C   0  0  0  0  0  0  0  0  0  0  0  0
  -20.1122   -2.6801  -30.8072 C   0  0  0  0  0  0  0  0  0  0  0  0
  -20.0289   -1.4808  -30.8144 C   0  0  0  0  0  0  0  0  0  0  0  0
  -19.1424   -2.8977  -30.5086 C   0  0  0  0  0  0  0  0  0  0  0  0
  -24.7962    4.2414  -31.8106 O   0  0  0  0  0  0  0  0  0  0  0  0
  -22.4547   -2.6808  -31.3528 O   0  0  0  0  0  0  0  0  0  0  0  0
  -30.6623    5.2589  -32.7307 N   0  0  0  0  0  0  0  0  0  0  0  0
  -30.0919    6.2896  -31.8738 N   0  0  0  0  0  0  0  0  0  0  0  0
  -28.8671    3.6235  -32.9345 N   0  0  0  0  0  0  0  0  0  0  0  0
  -29.2505   -1.0329  -32.7563 F   0  0  0  0  0  0  0  0  0  0  0  0
  -27.5757   -1.9502  -31.9762 F   0  0  0  0  0  0  0  0  0  0  0  0
  -27.6009   -1.4606  -34.0759 F   0  0  0  0  0  0  0  0  0  0  0  0
  1  2  1  0
  1  5  1  0
  2 36  1  0
  3  5  1  0
  4  6  1  0
  4  7  1  0
  5 37  1  0
  6  8  1  0
  7 36  1  0
  7 38  1  0
  8 11  1  0
  8 38  1  0
  9 12  1  0
  9 39  1  0
  9 40  1  0
  9 41  1  0
 10 13  1  0
 10 38  1  0
 11 12  1  0
 12 14  1  0
 13 15  1  0
 14 16  1  0
 15 34  1  0
 16 19  1  0
 17 22  2  0
 17 25  1  0
 17 34  1  0
 18 22  1  0
 18 23  2  0
 19 20  1  0
 19 24  1  0
 20 21  1  0
 21 25  1  0
 22 26  1  0
 24 28  1  0
 24 35  1  0
 25 29  2  0
 26 30  2  0
 27 31  1  0
 27 35  1  0
 28 32  1  0
 29 30  1  0
 31 32  1  0
 31 33  2  0
 36 37  1  0
M  END
$$$$

     RDKit          3D

 62 67  0  0  0  0  0  0  0  0999 V2000
  -31.2082    9.6005  -32.0718 C   0  0  0  0  0  0  0  0  0  0  0  0
  -30.2757    8.4173  -32.0113 C   0  0  0  0  0  0  0  0  0  0  0  0
  -29.9620    7.8324  -30.7817 C   0  0  0  0  0  0  0  0  0  0  0  0
  -29.6869    7.9468  -33.2107 C   0  0  0  0  0  0  0  0  0  0  0  0
  -29.0443    6.7633  -30.7256 C   0  0  0  0  0  0  0  0  0  0  0  0
  -28.7092    6.9163  -33.1368 C   0  0  0  0  0  0  0  0  0  0  0  0
  -28.4031    6.2953  -31.9013 C   0  0  0  0  0  0  0  0  0  0  0  0
  -27.7765    3.6310  -32.7420 C   0  0  0  0  0  0  0  0  0  0  0  0
  -27.7707    7.2416  -35.3942 C   0  0  0  0  0  0  0  0  0  0  0  0
  -27.2347    5.2567  -31.8101 C   0  0  0  0  0  0  0  0  0  0  0  0
  -27.0395    2.3397  -32.4836 C   0  0  0  0  0  0  0  0  0  0  0  0
  -26.9948    6.7354  -36.5521 C   0  0  0  0  0  0  0  0  0  0  0  0
  -27.1981    7.4180  -37.7950 C   0  0  0  0  0  0  0  0  0  0  0  0
  -26.5535    5.3274  -36.6450 C   0  0  0  0  0  0  0  0  0  0  0  0
  -26.1742    5.4935  -30.2714 C   0  0  0  0  0  0  0  0  0  0  0  0
  -25.6309    2.5267  -32.2904 C   0  0  0  0  0  0  0  0  0  0  0  0
  -25.2359    4.8409  -36.0733 C   0  0  0  0  0  0  0  0  0  0  0  0
  -24.9501    3.5005  -36.4146 C   0  0  0  0  0  0  0  0  0  0  0  0
  -24.6008    1.4696  -32.4219 C   0  0  0  0  0  0  0  0  0  0  0  0
  -24.6807    6.0686  -30.0937 C   0  0  0  0  0  0  0  0  0  0  0  0
  -24.5863    6.9257  -34.6573 C   0  0  0  0  0  0  0  0  0  0  0  0
  -24.2652   -0.1010  -30.6594 C   0  0  0  0  0  0  0  0  0  0  0  0
  -24.3867    1.6756  -34.9783 C   0  0  0  0  0  0  0  0  0  0  0  0
  -24.3283    5.5432  -35.1790 C   0  0  0  0  0  0  0  0  0  0  0  0
  -23.8314   -1.2925  -31.5325 C   0  0  0  0  0  0  0  0  0  0  0  0
  -23.7710    1.1659  -31.2423 C   0  0  0  0  0  0  0  0  0  0  0  0
  -23.7530    1.3906  -33.6633 C   0  0  0  0  0  0  0  0  0  0  0  0
  -23.7725    2.8115  -35.8838 C   0  0  0  0  0  0  0  0  0  0  0  0
  -23.8262    6.4442  -31.3613 C   0  0  0  0  0  0  0  0  0  0  0  0
  -23.8841    7.9955  -35.4035 C   0  0  0  0  0  0  0  0  0  0  0  0
  -23.6233    2.2600  -30.2800 C   0  0  0  0  0  0  0  0  0  0  0  0
  -23.0831    4.9192  -34.7802 C   0  0  0  0  0  0  0  0  0  0  0  0
  -22.7326    2.1582  -29.0664 C   0  0  0  0  0  0  0  0  0  0  0  0
  -22.7525    3.5548  -35.2431 C   0  0  0  0  0  0  0  0  0  0  0  0
  -22.9265    4.5136  -30.2672 C   0  0  0  0  0  0  0  0  0  0  0  0
  -22.4659    5.6269  -31.2285 C   0  0  0  0  0  0  0  0  0  0  0  0
  -22.0105   -2.5381  -30.6569 C   0  0  0  0  0  0  0  0  0  0  0  0
  -21.9948    4.9321  -32.4903 C   0  0  0  0  0  0  0  0  0  0  0  0
  -22.1117    5.6028  -33.8457 C   0  0  0  0  0  0  0  0  0  0  0  0
  -21.4011   -3.8107  -30.8975 C   0  0  0  0  0  0  0  0  0  0  0  0
  -21.2307   -1.4048  -30.5521 C   0  0  0  0  0  0  0  0  0  0  0  0
  -21.3140    1.7688  -28.9671 C   0  0  0  0  0  0  0  0  0  0  0  0
  -20.2397    2.7314  -29.2808 C   0  0  0  0  0  0  0  0  0  0  0  0
  -19.9599   -3.9196  -30.9394 C   0  0  0  0  0  0  0  0  0  0  0  0
  -19.8240   -1.4771  -30.7509 C   0  0  0  0  0  0  0  0  0  0  0  0
  -19.4449    0.9492  -30.8496 C   0  0  0  0  0  0  0  0  0  0  0  0
  -19.2034   -2.7061  -30.9246 C   0  0  0  0  0  0  0  0  0  0  0  0
  -19.0360    2.1973  -29.9975 C   0  0  0  0  0  0  0  0  0  0  0  0
  -18.5245    3.3369  -30.8800 C   0  0  0  0  0  0  0  0  0  0  0  0
  -28.2124    8.3560  -35.5314 O   0  0  0  0  0  0  0  0  0  0  0  0
  -28.0933    6.4857  -34.3443 O   0  0  0  0  0  0  0  0  0  0  0  0
  -25.8799    2.8389  -37.1270 O   0  0  0  0  0  0  0  0  0  0  0  0
  -25.6157   -0.2867  -30.5517 O   0  0  0  0  0  0  0  0  0  0  0  0
  -25.1109    7.1232  -33.6077 O   0  0  0  0  0  0  0  0  0  0  0  0
  -24.7210    7.1105  -29.1333 O   0  0  0  0  0  0  0  0  0  0  0  0
  -24.5042   -1.4231  -32.5734 O   0  0  0  0  0  0  0  0  0  0  0  0
  -24.0403    4.9515  -29.4852 O   0  0  0  0  0  0  0  0  0  0  0  0
  -23.4304   -2.3270  -30.6514 O   0  0  0  0  0  0  0  0  0  0  0  0
  -23.3352    3.4424  -31.0444 O   0  0  0  0  0  0  0  0  0  0  0  0
  -21.5899    3.0026  -35.0480 O   0  0  0  0  0  0  0  0  0  0  0  0
  -20.0819    1.1616  -31.8554 O   0  0  0  0  0  0  0  0  0  0  0  0
  -19.0736   -0.3029  -30.5424 N   0  0  0  0  0  0  0  0  0  0  0  0
  1  2  1  0
  2  3  2  0
  2  4  1  0
  3  5  1  0
  4  6  2  0
  5  7  2  0
  6  7  1  0
  6 51  1  0
  7 10  1  0
  8 11  1  0
  9 12  1  0
  9 50  2  0
  9 51  1  0
 11 16  1  0
 12 13  1  0
 12 14  1  0
 14 17  1  0
 15 20  1  0
 16 19  1  0
 17 18  2  0
 17 24  1  0
 18 28  1  0
 18 52  1  0
 19 26  1  0
 19 27  1  0
 20 29  1  0
 20 55  1  0
 20 57  1  0
 21 24  1  0
 21 30  1  0
 21 54  2  0
 22 25  1  0
 22 26  1  0
 22 53  1  0
 23 27  1  0
 23 28  1  0
 24 32  1  0
 25 56  2  0
 25 58  1  0
 26 31  1  0
 28 34  1  0
 29 36  1  0
 31 33  1  0
 31 59  1  0
 32 34  2  0
 32 39  1  0
 33 42  1  0
 34 60  1  0
 35 36  1  0
 35 57  1  0
 35 59  1  0
 36 38  1  0
 37 40  2  0
 37 41  1  0
 37 58  1  0
 38 39  1  0
 40 44  1  0
 41 45  2  0
 42 43  1  0
 43 48  1  0
 44 47  2  0
 45 47  1  0
 45 62  1  0
 46 48  1  0
 46 61  2  0
 46 62  1  0
 48 49  1  0
M  END
$$$$

     RDKit          3D

 49 54  0  0  0  0  0  0  0  0999 V2000
  -29.7963    0.3048  -34.8938 C   0  0  0  0  0  0  0  0  0  0  0  0
  -28.9751   -1.0523  -32.9610 C   0  0  0  0  0  0  0  0  0  0  0  0
  -28.6998   -0.1298  -33.9748 C   0  0  0  0  0  0  0  0  0  0  0  0
  -27.9124   -1.5256  -32.1843 C   0  0  0  0  0  0  0  0  0  0  0  0
  -27.3967    0.3744  -34.1486 C   0  0  0  0  0  0  0  0  0  0  0  0
  -26.5814   -1.0664  -32.3660 C   0  0  0  0  0  0  0  0  0  0  0  0
  -26.3392   -0.1127  -33.3888 C   0  0  0  0  0  0  0  0  0  0  0  0
  -25.8003    4.1671  -38.3820 C   0  0  0  0  0  0  0  0  0  0  0  0
  -25.7288    4.8280  -36.0906 C   0  0  0  0  0  0  0  0  0  0  0  0
  -25.2344    5.2114  -37.4644 C   0  0  0  0  0  0  0  0  0  0  0  0
  -24.9070    0.3861  -33.6442 C   0  0  0  0  0  0  0  0  0  0  0  0
  -24.8783    1.6703  -34.4810 C   0  0  0  0  0  0  0  0  0  0  0  0
  -24.5753    7.2170  -31.6389 C   0  0  0  0  0  0  0  0  0  0  0  0
  -24.1987    0.8194  -32.3397 C   0  0  0  0  0  0  0  0  0  0  0  0
  -23.9645    2.3607  -32.4409 C   0  0  0  0  0  0  0  0  0  0  0  0
  -24.0527    3.8877  -34.5753 C   0  0  0  0  0  0  0  0  0  0  0  0
  -23.9357    6.2955  -33.8611 C   0  0  0  0  0  0  0  0  0  0  0  0
  -23.3049    3.6365  -30.1005 C   0  0  0  0  0  0  0  0  0  0  0  0
  -23.0935    5.0961  -34.3310 C   0  0  0  0  0  0  0  0  0  0  0  0
  -22.8377   -0.9603  -31.3506 C   0  0  0  0  0  0  0  0  0  0  0  0
  -22.9174    5.3118  -32.0562 C   0  0  0  0  0  0  0  0  0  0  0  0
  -22.6227    3.3167  -28.8232 C   0  0  0  0  0  0  0  0  0  0  0  0
  -22.6352    4.7573  -30.7038 C   0  0  0  0  0  0  0  0  0  0  0  0
  -22.1131    5.3835  -35.4646 C   0  0  0  0  0  0  0  0  0  0  0  0
  -21.8013    6.6754  -35.9605 C   0  0  0  0  0  0  0  0  0  0  0  0
  -21.4934   -1.6092  -31.1448 C   0  0  0  0  0  0  0  0  0  0  0  0
  -21.6154    4.3471  -28.6482 C   0  0  0  0  0  0  0  0  0  0  0  0
  -21.6061    5.1889  -29.8609 C   0  0  0  0  0  0  0  0  0  0  0  0
  -21.4228   -3.0223  -31.0906 C   0  0  0  0  0  0  0  0  0  0  0  0
  -21.4116    4.2544  -35.9782 C   0  0  0  0  0  0  0  0  0  0  0  0
  -20.8756    6.8677  -36.9992 C   0  0  0  0  0  0  0  0  0  0  0  0
  -20.4835    4.4258  -37.0192 C   0  0  0  0  0  0  0  0  0  0  0  0
  -20.2916   -0.8766  -30.9436 C   0  0  0  0  0  0  0  0  0  0  0  0
  -20.2186    5.7088  -37.5108 C   0  0  0  0  0  0  0  0  0  0  0  0
  -20.0017   -5.1718  -31.0141 C   0  0  0  0  0  0  0  0  0  0  0  0
  -20.1584   -3.6361  -30.9047 C   0  0  0  0  0  0  0  0  0  0  0  0
  -20.1899    0.5620  -30.7507 C   0  0  0  0  0  0  0  0  0  0  0  0
  -19.0256   -1.5830  -30.8534 C   0  0  0  0  0  0  0  0  0  0  0  0
  -24.8523    3.9107  -35.5704 O   0  0  0  0  0  0  0  0  0  0  0  0
  -23.8709   -1.5033  -30.8687 O   0  0  0  0  0  0  0  0  0  0  0  0
  -22.2760    4.8095  -33.1236 O   0  0  0  0  0  0  0  0  0  0  0  0
  -17.8478   -1.0104  -30.7799 O   0  0  0  0  0  0  0  0  0  0  0  0
  -24.0246    2.6801  -33.9030 N   0  0  0  0  0  0  0  0  0  0  0  0
  -23.8459    6.2398  -32.4349 N   0  0  0  0  0  0  0  0  0  0  0  0
  -22.9240    0.1425  -32.1421 N   0  0  0  0  0  0  0  0  0  0  0  0
  -19.0052   -2.9432  -30.7874 N   0  0  0  0  0  0  0  0  0  0  0  0
  -30.9998    0.2477  -34.2786 F   0  0  0  0  0  0  0  0  0  0  0  0
  -30.0776   -0.6134  -35.8886 F   0  0  0  0  0  0  0  0  0  0  0  0
  -28.1861   -2.4667  -31.2807 F   0  0  0  0  0  0  0  0  0  0  0  0
  1  3  1  0
  1 47  1  0
  1 48  1  0
  2  3  1  0
  2  4  2  0
  3  5  1  0
  4  6  1  0
  4 49  1  0
  5  7  2  0
  6  7  1  0
  7 11  1  0
  8 10  1  0
  9 10  1  0
  9 39  1  0
 11 12  1  0
 11 14  1  0
 12 43  1  0
 13 44  1  0
 14 15  1  0
 14 45  1  0
 15 43  1  0
 16 19  1  0
 16 39  1  0
 16 43  1  0
 17 19  1  0
 17 44  1  0
 18 22  1  0
 18 23  1  0
 19 24  1  0
 19 41  1  0
 20 26  1  0
 20 40  2  0
 20 45  1  0
 21 23  1  0
 21 41  1  0
 21 44  1  0
 22 27  1  0
 23 28  1  0
 24 25  2  0
 24 30  1  0
 25 31  1  0
 26 29  1  0
 26 33  2  0
 27 28  1  0
 29 36  1  0
 30 32  2  0
 31 34  2  0
 32 34  1  0
 33 37  1  0
 33 38  1  0
 35 36  1  0
 36 46  2  0
 38 42  2  0
 38 46  1  0
M  END
$$$$

     RDKit          3D

 61 69  0  0  0  0  0  0  0  0999 V2000
  -31.4593    1.5851  -35.3653 C   0  0  0  0  0  0  0  0  0  0  0  0
  -31.0766   -0.1742  -33.9697 C   0  0  0  0  0  0  0  0  0  0  0  0
  -31.1976    2.7189  -36.1315 C   0  0  0  0  0  0  0  0  0  0  0  0
  -30.7198    7.7208  -37.8916 C   0  0  0  0  0  0  0  0  0  0  0  0
  -30.4464    0.8527  -34.7034 C   0  0  0  0  0  0  0  0  0  0  0  0
  -29.8339    3.0755  -36.3783 C   0  0  0  0  0  0  0  0  0  0  0  0
  -29.4253    4.2689  -37.1809 C   0  0  0  0  0  0  0  0  0  0  0  0
  -29.3048    7.6430  -38.1518 C   0  0  0  0  0  0  0  0  0  0  0  0
  -29.0877    1.2295  -34.8768 C   0  0  0  0  0  0  0  0  0  0  0  0
  -28.7973    2.2980  -35.8105 C   0  0  0  0  0  0  0  0  0  0  0  0
  -28.8628    6.4475  -39.0026 C   0  0  0  0  0  0  0  0  0  0  0  0
  -28.3379    8.2027  -37.1803 C   0  0  0  0  0  0  0  0  0  0  0  0
  -27.9828    0.5900  -34.1733 C   0  0  0  0  0  0  0  0  0  0  0  0
  -28.0242    7.5545  -35.8570 C   0  0  0  0  0  0  0  0  0  0  0  0
  -27.7288    5.5679  -38.4689 C   0  0  0  0  0  0  0  0  0  0  0  0
  -27.4525    2.6082  -36.1261 C   0  0  0  0  0  0  0  0  0  0  0  0
  -27.1745    3.5161  -37.2797 C   0  0  0  0  0  0  0  0  0  0  0  0
  -26.4737    7.5333  -35.7370 C   0  0  0  0  0  0  0  0  0  0  0  0
  -26.3874    1.9550  -35.4316 C   0  0  0  0  0  0  0  0  0  0  0  0
  -26.2523    4.0439  -32.0934 C   0  0  0  0  0  0  0  0  0  0  0  0
  -26.1106    5.9942  -33.7947 C   0  0  0  0  0  0  0  0  0  0  0  0
  -25.8471   -0.3084  -32.4562 C   0  0  0  0  0  0  0  0  0  0  0  0
  -25.8496    4.5203  -33.4847 C   0  0  0  0  0  0  0  0  0  0  0  0
  -25.5356    0.4978  -33.6995 C   0  0  0  0  0  0  0  0  0  0  0  0
  -25.6315    6.4226  -35.2065 C   0  0  0  0  0  0  0  0  0  0  0  0
  -25.1904    3.9699  -30.9805 C   0  0  0  0  0  0  0  0  0  0  0  0
  -24.7128   -0.5996  -31.4771 C   0  0  0  0  0  0  0  0  0  0  0  0
  -24.3778    4.2079  -33.7871 C   0  0  0  0  0  0  0  0  0  0  0  0
  -23.9458    0.4776  -30.8817 C   0  0  0  0  0  0  0  0  0  0  0  0
  -23.6924    3.9889  -31.3974 C   0  0  0  0  0  0  0  0  0  0  0  0
  -23.5230    4.8220  -32.6818 C   0  0  0  0  0  0  0  0  0  0  0  0
  -22.7322   -1.9908  -31.0082 C   0  0  0  0  0  0  0  0  0  0  0  0
  -22.8082    4.5630  -30.2615 C   0  0  0  0  0  0  0  0  0  0  0  0
  -22.5026    0.3950  -31.4831 C   0  0  0  0  0  0  0  0  0  0  0  0
  -22.5547    4.4510  -27.7097 C   0  0  0  0  0  0  0  0  0  0  0  0
  -22.4223    3.7847  -28.9718 C   0  0  0  0  0  0  0  0  0  0  0  0
  -22.1627   -3.2727  -30.7933 C   0  0  0  0  0  0  0  0  0  0  0  0
  -22.0705    3.8984  -26.5236 C   0  0  0  0  0  0  0  0  0  0  0  0
  -21.8501   -0.8918  -31.1243 C   0  0  0  0  0  0  0  0  0  0  0  0
  -21.7525    2.5180  -28.9970 C   0  0  0  0  0  0  0  0  0  0  0  0
  -21.2647    1.9657  -27.7747 C   0  0  0  0  0  0  0  0  0  0  0  0
  -21.4557    2.6289  -26.5437 C   0  0  0  0  0  0  0  0  0  0  0  0
  -20.9652    2.0338  -25.3254 C   0  0  0  0  0  0  0  0  0  0  0  0
  -20.7549   -3.4354  -30.7059 C   0  0  0  0  0  0  0  0  0  0  0  0
  -20.6113    0.6948  -27.7684 C   0  0  0  0  0  0  0  0  0  0  0  0
  -20.2222   -4.8037  -30.4730 C   0  0  0  0  0  0  0  0  0  0  0  0
  -20.4508   -1.0583  -31.0921 C   0  0  0  0  0  0  0  0  0  0  0  0
  -20.3764    0.7789  -25.3793 C   0  0  0  0  0  0  0  0  0  0  0  0
  -20.1045    0.1372  -26.6056 C   0  0  0  0  0  0  0  0  0  0  0  0
  -19.9164   -2.3460  -30.9031 C   0  0  0  0  0  0  0  0  0  0  0  0
  -19.3085   -1.2703  -26.7062 C   0  0  0  0  0  0  0  0  0  0  0  0
  -26.2929    3.2684  -38.1089 O   0  0  0  0  0  0  0  0  0  0  0  0
  -24.4342    0.7225  -34.0799 O   0  0  0  0  0  0  0  0  0  0  0  0
  -24.1610   -1.8089  -31.2783 O   0  0  0  0  0  0  0  0  0  0  0  0
  -22.1209    4.5627  -25.3384 O   0  0  0  0  0  0  0  0  0  0  0  0
  -32.7446    1.0836  -34.9825 N   0  0  0  0  0  0  0  0  0  0  0  0
  -32.3731    0.1275  -34.1126 N   0  0  0  0  0  0  0  0  0  0  0  0
  -28.0560    4.5770  -37.4483 N   0  0  0  0  0  0  0  0  0  0  0  0
  -26.6623    1.0261  -34.4327 N   0  0  0  0  0  0  0  0  0  0  0  0
  -28.2035   -0.6312  -32.9277 S   0  0  0  0  0  0  0  0  0  0  0  0
  -19.3216    0.3618  -31.1352 Cl  0  0  0  0  0  0  0  0  0  0  0  0
  1  3  1  0
  1  5  2  0
  1 56  1  0
  2  5  1  0
  2 57  1  0
  3  6  2  0
  4  8  1  0
  5  9  1  0
  6  7  1  0
  6 10  1  0
  7 58  1  0
  8 11  1  0
  8 12  1  0
  9 10  2  0
  9 13  1  0
 10 16  1  0
 11 15  1  0
 12 14  1  0
 13 59  1  0
 13 60  2  0
 14 18  1  0
 15 58  1  0
 16 17  1  0
 16 19  2  0
 17 52  2  0
 17 58  1  0
 18 25  1  0
 19 59  1  0
 20 23  1  0
 20 26  1  0
 21 23  1  0
 21 25  1  0
 22 24  1  0
 22 27  1  0
 23 28  1  0
 24 53  2  0
 24 59  1  0
 26 30  1  0
 27 29  1  0
 27 54  1  0
 28 31  1  0
 29 34  1  0
 30 31  1  0
 30 33  1  0
 32 37  1  0
 32 39  2  0
 32 54  1  0
 33 36  1  0
 34 39  1  0
 35 36  2  0
 35 38  1  0
 36 40  1  0
 37 44  2  0
 38 42  2  0
 38 55  1  0
 39 47  1  0
 40 41  2  0
 41 42  1  0
 41 45  1  0
 42 43  1  0
 43 48  2  0
 44 46  1  0
 44 50  1  0
 45 49  2  0
 47 50  2  0
 47 61  1  0
 48 49  1  0
 49 51  1  0
 56 57  1  0
M  END
$$$$

     RDKit          3D

 49 54  0  0  0  0  0  0  0  0999 V2000
  -31.7874    3.5267  -35.2670 C   0  0  0  0  0  0  0  0  0  0  0  0
  -30.9591    2.3356  -35.3746 C   0  0  0  0  0  0  0  0  0  0  0  0
  -30.9497   -1.1270  -35.2206 C   0  0  0  0  0  0  0  0  0  0  0  0
  -30.3936    0.0782  -34.5853 C   0  0  0  0  0  0  0  0  0  0  0  0
  -29.1681   -0.3010  -33.7670 C   0  0  0  0  0  0  0  0  0  0  0  0
  -28.9405   -1.7041  -34.1284 C   0  0  0  0  0  0  0  0  0  0  0  0
  -28.2691    6.0892  -29.9186 C   0  0  0  0  0  0  0  0  0  0  0  0
  -28.0327    0.6234  -33.1593 C   0  0  0  0  0  0  0  0  0  0  0  0
  -28.0780    7.3970  -29.3698 C   0  0  0  0  0  0  0  0  0  0  0  0
  -27.2346    5.4005  -30.3893 C   0  0  0  0  0  0  0  0  0  0  0  0
  -26.7983    8.0034  -29.4402 C   0  0  0  0  0  0  0  0  0  0  0  0
  -25.9582    5.9409  -30.3772 C   0  0  0  0  0  0  0  0  0  0  0  0
  -25.7589    0.6890  -32.3271 C   0  0  0  0  0  0  0  0  0  0  0  0
  -25.7080    0.6752  -30.8577 C   0  0  0  0  0  0  0  0  0  0  0  0
  -25.7283    7.2873  -29.9765 C   0  0  0  0  0  0  0  0  0  0  0  0
  -25.6214    2.4294  -35.2910 C   0  0  0  0  0  0  0  0  0  0  0  0
  -25.5963    3.8069  -34.7077 C   0  0  0  0  0  0  0  0  0  0  0  0
  -25.0523    2.9161  -32.4921 C   0  0  0  0  0  0  0  0  0  0  0  0
  -24.7667    1.4007  -34.5769 C   0  0  0  0  0  0  0  0  0  0  0  0
  -24.7693    1.5068  -33.0657 C   0  0  0  0  0  0  0  0  0  0  0  0
  -24.6786    5.2873  -32.9252 C   0  0  0  0  0  0  0  0  0  0  0  0
  -23.9508    5.4595  -31.5802 C   0  0  0  0  0  0  0  0  0  0  0  0
  -23.3466    1.6568  -35.0351 C   0  0  0  0  0  0  0  0  0  0  0  0
  -22.7116   -1.6730  -30.9739 C   0  0  0  0  0  0  0  0  0  0  0  0
  -22.7206    4.5994  -31.2969 C   0  0  0  0  0  0  0  0  0  0  0  0
  -22.6892    4.0046  -30.0410 C   0  0  0  0  0  0  0  0  0  0  0  0
  -22.0240   -2.9048  -30.8564 C   0  0  0  0  0  0  0  0  0  0  0  0
  -22.1133   -0.4516  -30.5611 C   0  0  0  0  0  0  0  0  0  0  0  0
  -21.7347    3.0750  -29.6820 C   0  0  0  0  0  0  0  0  0  0  0  0
  -21.7206    4.2809  -32.2497 C   0  0  0  0  0  0  0  0  0  0  0  0
  -20.7392   -2.9647  -30.2306 C   0  0  0  0  0  0  0  0  0  0  0  0
  -20.7887   -0.5208  -30.0053 C   0  0  0  0  0  0  0  0  0  0  0  0
  -20.6952    2.7645  -30.5994 C   0  0  0  0  0  0  0  0  0  0  0  0
  -20.6875    3.4222  -31.8555 C   0  0  0  0  0  0  0  0  0  0  0  0
  -20.1584   -1.7255  -29.7917 C   0  0  0  0  0  0  0  0  0  0  0  0
  -19.8270    0.4763  -29.6214 C   0  0  0  0  0  0  0  0  0  0  0  0
  -19.6649    1.8428  -30.1307 C   0  0  0  0  0  0  0  0  0  0  0  0
  -32.0759   -1.1774  -35.8583 O   0  0  0  0  0  0  0  0  0  0  0  0
  -28.2617    1.8143  -32.9848 O   0  0  0  0  0  0  0  0  0  0  0  0
  -26.9043    0.1128  -32.9083 O   0  0  0  0  0  0  0  0  0  0  0  0
  -26.0731    1.6745  -30.2159 O   0  0  0  0  0  0  0  0  0  0  0  0
  -25.4209   -0.4332  -30.4090 O   0  0  0  0  0  0  0  0  0  0  0  0
  -24.7347    6.3098  -33.5998 O   0  0  0  0  0  0  0  0  0  0  0  0
  -30.9689    1.2936  -34.5595 N   0  0  0  0  0  0  0  0  0  0  0  0
  -30.0987   -2.1222  -35.0036 N   0  0  0  0  0  0  0  0  0  0  0  0
  -25.0586    4.0209  -33.3514 N   0  0  0  0  0  0  0  0  0  0  0  0
  -24.9481    5.0687  -30.6292 N   0  0  0  0  0  0  0  0  0  0  0  0
  -18.9562   -1.5252  -29.1794 N   0  0  0  0  0  0  0  0  0  0  0  0
  -18.7443   -0.1853  -29.0972 N   0  0  0  0  0  0  0  0  0  0  0  0
  1  2  1  0
  2 44  2  3
  3  4  1  0
  3 38  2  0
  3 45  1  0
  4  5  1  0
  4 44  1  0
  5  6  1  0
  5  8  1  0
  6 45  1  0
  7  9  2  0
  7 10  1  0
  8 39  2  0
  8 40  1  0
  9 11  1  0
 10 12  2  0
 11 15  2  0
 12 15  1  0
 12 47  1  0
 13 14  1  0
 13 20  1  0
 13 40  1  0
 14 41  2  0
 14 42  1  0
 16 17  1  0
 16 19  1  0
 17 46  1  0
 18 20  1  0
 18 46  1  0
 19 20  1  0
 19 23  1  0
 21 22  1  0
 21 43  2  0
 21 46  1  0
 22 25  1  0
 22 47  1  0
 24 27  2  0
 24 28  1  0
 25 26  2  0
 25 30  1  0
 26 29  1  0
 27 31  1  0
 28 32  2  0
 29 33  2  0
 30 34  2  0
 31 35  2  0
 32 35  1  0
 32 36  1  0
 33 34  1  0
 33 37  1  0
 35 48  1  0
 36 37  1  0
 36 49  1  0
 48 49  1  0
M  END
$$$$

     RDKit          3D

 42 45  0  0  0  0  0  0  0  0999 V2000
  -30.5385    3.0030  -34.5745 C   0  0  0  0  0  0  0  0  0  0  0  0
  -29.8554    1.7178  -34.7356 C   0  0  0  0  0  0  0  0  0  0  0  0
  -28.7631   -0.6182  -33.4655 C   0  0  0  0  0  0  0  0  0  0  0  0
  -28.4783    1.7272  -34.1919 C   0  0  0  0  0  0  0  0  0  0  0  0
  -28.4610   -2.0574  -33.9339 C   0  0  0  0  0  0  0  0  0  0  0  0
  -27.9851    0.3187  -34.3638 C   0  0  0  0  0  0  0  0  0  0  0  0
  -27.5532    2.6528  -34.9936 C   0  0  0  0  0  0  0  0  0  0  0  0
  -26.4880    0.4777  -34.1409 C   0  0  0  0  0  0  0  0  0  0  0  0
  -26.2459    2.0036  -34.3982 C   0  0  0  0  0  0  0  0  0  0  0  0
  -26.3897    6.7614  -29.5193 C   0  0  0  0  0  0  0  0  0  0  0  0
  -25.9918    0.1309  -32.7267 C   0  0  0  0  0  0  0  0  0  0  0  0
  -26.0649    5.4164  -30.0601 C   0  0  0  0  0  0  0  0  0  0  0  0
  -25.6834    7.6944  -30.4669 C   0  0  0  0  0  0  0  0  0  0  0  0
  -24.7931    0.8607  -32.1763 C   0  0  0  0  0  0  0  0  0  0  0  0
  -24.5872    5.4957  -30.3639 C   0  0  0  0  0  0  0  0  0  0  0  0
  -24.4657    6.9273  -30.9928 C   0  0  0  0  0  0  0  0  0  0  0  0
  -24.2513    2.0041  -32.8613 C   0  0  0  0  0  0  0  0  0  0  0  0
  -23.6724   -0.0092  -31.5735 C   0  0  0  0  0  0  0  0  0  0  0  0
  -22.9643    2.4317  -32.2207 C   0  0  0  0  0  0  0  0  0  0  0  0
  -23.1750    3.9483  -31.6943 C   0  0  0  0  0  0  0  0  0  0  0  0
  -22.8125    1.8217  -29.8686 C   0  0  0  0  0  0  0  0  0  0  0  0
  -22.6239    1.0221  -31.2416 C   0  0  0  0  0  0  0  0  0  0  0  0
  -21.9781   -2.7149  -30.8867 C   0  0  0  0  0  0  0  0  0  0  0  0
  -21.7913    2.5413  -33.1265 C   0  0  0  0  0  0  0  0  0  0  0  0
  -21.2784    0.4795  -31.6146 C   0  0  0  0  0  0  0  0  0  0  0  0
  -21.1658   -1.5149  -28.9222 C   0  0  0  0  0  0  0  0  0  0  0  0
  -20.8444   -1.8647  -30.3480 C   0  0  0  0  0  0  0  0  0  0  0  0
  -20.5263   -0.6069  -31.0993 C   0  0  0  0  0  0  0  0  0  0  0  0
  -20.3919   -0.4352  -26.8651 C   0  0  0  0  0  0  0  0  0  0  0  0
  -20.0238   -1.2518  -28.0269 C   0  0  0  0  0  0  0  0  0  0  0  0
  -19.6515   -2.8091  -30.5121 C   0  0  0  0  0  0  0  0  0  0  0  0
  -19.4847   -0.6733  -25.6555 C   0  0  0  0  0  0  0  0  0  0  0  0
  -18.9359   -0.2976  -31.1032 C   0  0  0  0  0  0  0  0  0  0  0  0
  -18.6946   -1.8327  -28.2041 C   0  0  0  0  0  0  0  0  0  0  0  0
  -18.3792   -1.6845  -25.8879 C   0  0  0  0  0  0  0  0  0  0  0  0
  -17.7748   -1.2747  -27.2069 C   0  0  0  0  0  0  0  0  0  0  0  0
  -30.6137    0.8510  -33.8283 O   0  0  0  0  0  0  0  0  0  0  0  0
  -29.9171    1.0816  -35.9136 O   0  0  0  0  0  0  0  0  0  0  0  0
  -27.8345    3.8925  -34.8552 O   0  0  0  0  0  0  0  0  0  0  0  0
  -25.3148    8.8593  -29.7630 O   0  0  0  0  0  0  0  0  0  0  0  0
  -24.3796    4.4047  -31.2681 O   0  0  0  0  0  0  0  0  0  0  0  0
  -20.2103    0.8223  -27.1661 O   0  0  0  0  0  0  0  0  0  0  0  0
  1  2  1  0
  2  4  1  0
  2 37  1  0
  2 38  1  0
  3  5  1  0
  3  6  1  0
  4  6  1  0
  4  7  1  0
  6  8  1  0
  7  9  1  0
  7 39  1  0
  8  9  1  0
  8 11  1  0
 10 12  1  0
 10 13  1  0
 11 14  1  0
 12 15  1  0
 13 16  1  0
 13 40  1  0
 14 17  1  0
 14 18  1  0
 15 16  1  0
 15 41  1  0
 17 19  1  0
 18 22  1  0
 19 20  1  0
 19 22  1  0
 19 24  1  0
 20 41  1  0
 21 22  1  0
 22 25  1  0
 23 27  1  0
 25 28  1  0
 26 27  1  0
 26 30  1  0
 27 28  1  0
 27 31  1  0
 28 33  1  0
 29 30  1  0
 29 32  1  0
 29 42  1  0
 30 34  1  0
 32 35  1  0
 34 36  1  0
 35 36  1  0
M  END
$$$$

     RDKit          3D

 29 29  0  0  0  0  0  0  0  0999 V2000
  -28.3252    4.1681  -32.3876 C   0  0  0  0  0  0  0  0  0  0  0  0
  -28.0081    6.1224  -29.4960 C   0  0  0  0  0  0  0  0  0  0  0  0
  -27.6778   -0.8184  -33.9265 C   0  0  0  0  0  0  0  0  0  0  0  0
  -27.2637    3.8958  -31.3118 C   0  0  0  0  0  0  0  0  0  0  0  0
  -27.4488    6.3273  -30.8942 C   0  0  0  0  0  0  0  0  0  0  0  0
  -26.5797   -1.2949  -31.7844 C   0  0  0  0  0  0  0  0  0  0  0  0
  -26.5419   -0.5692  -33.0240 C   0  0  0  0  0  0  0  0  0  0  0  0
  -26.5006    5.1225  -30.9524 C   0  0  0  0  0  0  0  0  0  0  0  0
  -26.2487    2.8316  -31.7667 C   0  0  0  0  0  0  0  0  0  0  0  0
  -25.9591    0.8561  -33.0066 C   0  0  0  0  0  0  0  0  0  0  0  0
  -25.4948    2.1862  -30.6095 C   0  0  0  0  0  0  0  0  0  0  0  0
  -25.4102    1.1679  -34.4712 C   0  0  0  0  0  0  0  0  0  0  0  0
  -25.0975    5.3722  -31.3279 C   0  0  0  0  0  0  0  0  0  0  0  0
  -24.6480    1.0190  -30.9885 C   0  0  0  0  0  0  0  0  0  0  0  0
  -23.0963    1.1648  -30.7772 C   0  0  0  0  0  0  0  0  0  0  0  0
  -22.6291   -1.1530  -30.4817 C   0  0  0  0  0  0  0  0  0  0  0  0
  -22.4781    2.0745  -31.8067 C   0  0  0  0  0  0  0  0  0  0  0  0
  -21.9584   -2.3013  -30.2510 C   0  0  0  0  0  0  0  0  0  0  0  0
  -21.2587    2.7595  -31.3026 C   0  0  0  0  0  0  0  0  0  0  0  0
  -20.5640   -2.2157  -30.3187 C   0  0  0  0  0  0  0  0  0  0  0  0
  -27.7002   -1.8016  -31.3592 O   0  0  0  0  0  0  0  0  0  0  0  0
  -26.8387    1.7651  -32.4305 O   0  0  0  0  0  0  0  0  0  0  0  0
  -25.9759    2.0213  -35.1772 O   0  0  0  0  0  0  0  0  0  0  0  0
  -25.6522   -1.6837  -31.0283 O   0  0  0  0  0  0  0  0  0  0  0  0
  -24.8162    3.1832  -29.9259 O   0  0  0  0  0  0  0  0  0  0  0  0
  -24.5140    0.3873  -34.8970 O   0  0  0  0  0  0  0  0  0  0  0  0
  -24.6993    0.7319  -32.3502 O   0  0  0  0  0  0  0  0  0  0  0  0
  -22.6348   -3.3671  -29.8726 O   0  0  0  0  0  0  0  0  0  0  0  0
  -22.5109   -0.0340  -30.8054 O   0  0  0  0  0  0  0  0  0  0  0  0
  1  4  1  0
  2  5  1  0
  3  7  1  0
  4  8  1  0
  4  9  1  0
  5  8  1  0
  6  7  1  0
  6 21  2  0
  6 24  1  0
  7 10  1  0
  8 13  1  0
  9 11  1  0
  9 22  1  0
 10 12  1  0
 10 22  1  0
 10 27  1  0
 11 14  1  0
 11 25  1  0
 12 23  2  0
 12 26  1  0
 14 15  1  0
 14 27  1  0
 15 17  1  0
 15 29  1  0
 16 18  2  3
 16 29  1  0
 17 19  1  0
 18 20  1  0
 18 28  1  0
M  END
$$$$

     RDKit          3D

 38 42  0  0  0  0  0  0  0  0999 V2000
  -32.7515    2.5861  -34.6955 C   0  0  0  0  0  0  0  0  0  0  0  0
  -32.4506    0.2951  -35.6500 C   0  0  0  0  0  0  0  0  0  0  0  0
  -31.5959    2.2350  -33.8337 C   0  0  0  0  0  0  0  0  0  0  0  0
  -31.3217    0.0366  -34.8244 C   0  0  0  0  0  0  0  0  0  0  0  0
  -30.9918    0.9904  -33.9035 C   0  0  0  0  0  0  0  0  0  0  0  0
  -28.9636   -0.1346  -34.2661 C   0  0  0  0  0  0  0  0  0  0  0  0
  -28.3972   -1.5499  -32.2956 C   0  0  0  0  0  0  0  0  0  0  0  0
  -27.8715   -0.9962  -33.6255 C   0  0  0  0  0  0  0  0  0  0  0  0
  -26.5054   -0.2764  -33.4412 C   0  0  0  0  0  0  0  0  0  0  0  0
  -25.7317    0.9985  -31.4261 C   0  0  0  0  0  0  0  0  0  0  0  0
  -24.2249   -0.9018  -30.9147 C   0  0  0  0  0  0  0  0  0  0  0  0
  -24.3714    0.4231  -31.4027 C   0  0  0  0  0  0  0  0  0  0  0  0
  -23.2292    1.2191  -31.7789 C   0  0  0  0  0  0  0  0  0  0  0  0
  -23.3483    2.5816  -32.3563 C   0  0  0  0  0  0  0  0  0  0  0  0
  -22.7417   -2.7989  -30.3482 C   0  0  0  0  0  0  0  0  0  0  0  0
  -22.9384   -1.4477  -30.7698 C   0  0  0  0  0  0  0  0  0  0  0  0
  -22.7510    7.3143  -33.7306 C   0  0  0  0  0  0  0  0  0  0  0  0
  -22.3017    4.8474  -33.1572 C   0  0  0  0  0  0  0  0  0  0  0  0
  -22.2029    3.4015  -32.6084 C   0  0  0  0  0  0  0  0  0  0  0  0
  -22.0352    6.6432  -34.7005 C   0  0  0  0  0  0  0  0  0  0  0  0
  -21.7914   -0.6332  -31.0610 C   0  0  0  0  0  0  0  0  0  0  0  0
  -21.9377    0.6986  -31.5923 C   0  0  0  0  0  0  0  0  0  0  0  0
  -21.7794    5.2907  -34.3860 C   0  0  0  0  0  0  0  0  0  0  0  0
  -21.4678   -3.2907  -30.2246 C   0  0  0  0  0  0  0  0  0  0  0  0
  -20.9557    2.8352  -32.4039 C   0  0  0  0  0  0  0  0  0  0  0  0
  -21.0419    7.0474  -36.9478 C   0  0  0  0  0  0  0  0  0  0  0  0
  -20.8211    1.5156  -31.8705 C   0  0  0  0  0  0  0  0  0  0  0  0
  -20.4873   -1.1619  -30.8675 C   0  0  0  0  0  0  0  0  0  0  0  0
  -20.3508   -2.4923  -30.4218 C   0  0  0  0  0  0  0  0  0  0  0  0
  -19.5247    1.0351  -31.5514 C   0  0  0  0  0  0  0  0  0  0  0  0
  -19.3745   -0.2915  -31.0829 C   0  0  0  0  0  0  0  0  0  0  0  0
  -18.9606   -3.0551  -30.0944 C   0  0  0  0  0  0  0  0  0  0  0  0
  -29.8190    0.6255  -33.3977 O   0  0  0  0  0  0  0  0  0  0  0  0
  -26.0446    1.7621  -30.5149 O   0  0  0  0  0  0  0  0  0  0  0  0
  -20.0802    6.2541  -37.0711 O   0  0  0  0  0  0  0  0  0  0  0  0
  -26.6177    0.7387  -32.4013 N   0  0  0  0  0  0  0  0  0  0  0  0
  -21.6618    7.4299  -35.8118 N   0  0  0  0  0  0  0  0  0  0  0  0
  -23.0370    6.1270  -32.4371 S   0  0  0  0  0  0  0  0  0  0  0  0
  1  3  1  0
  2  4  1  0
  3  5  1  0
  4  5  2  3
  5 33  1  0
  6  8  1  0
  6 33  1  0
  7  8  1  0
  8  9  1  0
  9 36  1  0
 10 12  1  0
 10 34  2  0
 10 36  1  0
 11 12  1  0
 11 16  2  0
 12 13  1  0
 13 14  1  0
 13 22  2  0
 14 19  1  0
 15 16  1  0
 15 24  2  0
 16 21  1  0
 17 20  1  0
 17 38  1  0
 18 19  1  0
 18 23  2  0
 18 38  1  0
 19 25  2  0
 20 23  1  0
 20 37  2  3
 21 22  1  0
 21 28  1  0
 22 27  1  0
 24 29  1  0
 25 27  1  0
 26 35  2  0
 26 37  1  0
 27 30  2  0
 28 29  2  0
 28 31  1  0
 29 32  1  0
 30 31  1  0
M  END
$$$$

     RDKit          3D

 56 56  0  0  0  0  0  0  0  0999 V2000
  -32.2578    1.3759  -37.8739 C   0  0  0  0  0  0  0  0  0  0  0  0
  -31.7531    0.7926  -34.4781 C   0  0  0  0  0  0  0  0  0  0  0  0
  -31.2534    1.6953  -36.8447 C   0  0  0  0  0  0  0  0  0  0  0  0
  -30.9513   -0.6600  -36.2274 C   0  0  0  0  0  0  0  0  0  0  0  0
  -30.8853    0.7268  -35.7428 C   0  0  0  0  0  0  0  0  0  0  0  0
  -30.3327    2.8086  -37.1044 C   0  0  0  0  0  0  0  0  0  0  0  0
  -29.9599    3.5008  -35.8366 C   0  0  0  0  0  0  0  0  0  0  0  0
  -29.3120    4.7299  -36.0160 C   0  0  0  0  0  0  0  0  0  0  0  0
  -28.9854    2.4423  -37.8405 C   0  0  0  0  0  0  0  0  0  0  0  0
  -28.3047    3.7432  -38.2157 C   0  0  0  0  0  0  0  0  0  0  0  0
  -28.1297    2.9457  -33.2277 C   0  0  0  0  0  0  0  0  0  0  0  0
  -28.1569    4.6193  -36.9367 C   0  0  0  0  0  0  0  0  0  0  0  0
  -27.4854    4.2143  -33.2604 C   0  0  0  0  0  0  0  0  0  0  0  0
  -26.8984    3.5620  -38.7956 C   0  0  0  0  0  0  0  0  0  0  0  0
  -26.1912    4.2082  -33.8396 C   0  0  0  0  0  0  0  0  0  0  0  0
  -26.1197    4.4706  -35.2769 C   0  0  0  0  0  0  0  0  0  0  0  0
  -25.4723    1.3621  -30.8619 C   0  0  0  0  0  0  0  0  0  0  0  0
  -25.5942    3.3867  -31.6249 C   0  0  0  0  0  0  0  0  0  0  0  0
  -25.3250    0.0299  -31.0174 C   0  0  0  0  0  0  0  0  0  0  0  0
  -25.2094    3.4375  -33.0832 C   0  0  0  0  0  0  0  0  0  0  0  0
  -24.9311    2.4131  -31.0597 C   0  0  0  0  0  0  0  0  0  0  0  0
  -24.4647    6.0224  -31.0109 C   0  0  0  0  0  0  0  0  0  0  0  0
  -24.1268   -0.7069  -31.5513 C   0  0  0  0  0  0  0  0  0  0  0  0
  -23.7155    4.6843  -30.8938 C   0  0  0  0  0  0  0  0  0  0  0  0
  -23.4526    6.8417  -31.8156 C   0  0  0  0  0  0  0  0  0  0  0  0
  -23.3171    5.3228  -28.4801 C   0  0  0  0  0  0  0  0  0  0  0  0
  -22.7101    4.6876  -29.7676 C   0  0  0  0  0  0  0  0  0  0  0  0
  -22.5071   -2.2285  -31.0174 C   0  0  0  0  0  0  0  0  0  0  0  0
  -22.4569    5.9920  -27.5564 C   0  0  0  0  0  0  0  0  0  0  0  0
  -21.7250    3.4808  -26.3652 C   0  0  0  0  0  0  0  0  0  0  0  0
  -21.9473    7.3346  -28.1249 C   0  0  0  0  0  0  0  0  0  0  0  0
  -21.6153   -0.1629  -29.0851 C   0  0  0  0  0  0  0  0  0  0  0  0
  -21.4195   -2.3039  -30.0963 C   0  0  0  0  0  0  0  0  0  0  0  0
  -21.2422    5.1386  -25.4932 C   0  0  0  0  0  0  0  0  0  0  0  0
  -21.0912    1.0442  -25.8701 C   0  0  0  0  0  0  0  0  0  0  0  0
  -21.1707    3.9909  -35.0577 C   0  0  0  0  0  0  0  0  0  0  0  0
  -20.7154    2.4868  -25.7178 C   0  0  0  0  0  0  0  0  0  0  0  0
  -20.5008   -3.4820  -30.2560 C   0  0  0  0  0  0  0  0  0  0  0  0
  -20.6418    0.6483  -28.3856 C   0  0  0  0  0  0  0  0  0  0  0  0
  -20.3499    0.2851  -26.9527 C   0  0  0  0  0  0  0  0  0  0  0  0
  -20.2920    3.0441  -34.4627 C   0  0  0  0  0  0  0  0  0  0  0  0
  -20.1207    2.7725  -33.1241 C   0  0  0  0  0  0  0  0  0  0  0  0
  -19.4892    0.9413  -29.1623 C   0  0  0  0  0  0  0  0  0  0  0  0
  -19.7013    1.1724  -30.6219 C   0  0  0  0  0  0  0  0  0  0  0  0
  -19.0873   -3.1585  -29.6886 C   0  0  0  0  0  0  0  0  0  0  0  0
  -18.8163    2.4203  -32.6115 C   0  0  0  0  0  0  0  0  0  0  0  0
  -18.7748    3.4184  -30.3218 C   0  0  0  0  0  0  0  0  0  0  0  0
  -18.6579    2.1452  -31.1077 C   0  0  0  0  0  0  0  0  0  0  0  0
  -29.0693    4.4171  -39.2811 O   0  0  0  0  0  0  0  0  0  0  0  0
  -27.0234    3.9806  -36.1306 O   0  0  0  0  0  0  0  0  0  0  0  0
  -24.7183    3.7607  -30.5828 O   0  0  0  0  0  0  0  0  0  0  0  0
  -23.6341   -1.5575  -30.5398 O   0  0  0  0  0  0  0  0  0  0  0  0
  -22.7588    8.1019  -28.8071 O   0  0  0  0  0  0  0  0  0  0  0  0
  -21.4728   -1.5703  -28.9414 O   0  0  0  0  0  0  0  0  0  0  0  0
  -21.4396    5.3260  -26.9494 O   0  0  0  0  0  0  0  0  0  0  0  0
  -20.8327    7.7293  -27.8741 O   0  0  0  0  0  0  0  0  0  0  0  0
  1  3  1  0
  2  5  1  0
  3  5  1  0
  3  6  1  0
  4  5  1  0
  6  7  1  0
  6  9  1  0
  7  8  1  0
  8 12  1  0
  9 10  1  0
 10 12  1  0
 10 14  1  0
 10 49  1  0
 11 13  1  0
 12 50  1  0
 13 15  1  0
 15 16  1  0
 15 20  1  0
 16 50  1  0
 17 19  2  3
 17 21  1  0
 18 20  1  0
 18 21  1  0
 18 51  1  0
 19 23  1  0
 22 24  1  0
 22 25  1  0
 23 52  1  0
 24 27  1  0
 24 51  1  0
 26 27  1  0
 26 29  1  0
 28 33  1  0
 28 52  1  0
 29 31  1  0
 29 55  1  0
 30 37  1  0
 31 53  2  0
 31 56  1  0
 32 39  1  0
 32 54  1  0
 33 38  1  0
 33 54  1  0
 34 55  1  0
 35 37  1  0
 35 40  1  0
 36 41  1  0
 38 45  1  0
 39 40  1  0
 39 43  1  0
 41 42  1  0
 42 46  2  3
 43 44  1  0
 44 48  1  0
 46 48  1  0
 47 48  1  0
M  END
$$$$

     RDKit          3D

 52 57  0  0  0  0  0  0  0  0999 V2000
  -31.7802    8.4345  -30.5049 C   0  0  0  0  0  0  0  0  0  0  0  0
  -31.5714    8.7324  -31.8554 C   0  0  0  0  0  0  0  0  0  0  0  0
  -30.8430    7.5729  -28.3424 C   0  0  0  0  0  0  0  0  0  0  0  0
  -30.7262    7.8980  -29.7561 C   0  0  0  0  0  0  0  0  0  0  0  0
  -30.3600    8.5268  -32.4921 C   0  0  0  0  0  0  0  0  0  0  0  0
  -29.7260    7.0263  -27.6843 C   0  0  0  0  0  0  0  0  0  0  0  0
  -29.4739    7.6723  -30.4214 C   0  0  0  0  0  0  0  0  0  0  0  0
  -29.3195    7.9562  -31.8020 C   0  0  0  0  0  0  0  0  0  0  0  0
  -28.5130    6.8178  -28.3930 C   0  0  0  0  0  0  0  0  0  0  0  0
  -28.4000    7.1029  -29.7381 C   0  0  0  0  0  0  0  0  0  0  0  0
  -27.5068   -1.2086  -32.5200 C   0  0  0  0  0  0  0  0  0  0  0  0
  -27.3133   -0.3861  -33.6328 C   0  0  0  0  0  0  0  0  0  0  0  0
  -27.0493    4.0074  -38.9105 C   0  0  0  0  0  0  0  0  0  0  0  0
  -26.6121   -1.0952  -31.4431 C   0  0  0  0  0  0  0  0  0  0  0  0
  -26.6375    5.5179  -30.8162 C   0  0  0  0  0  0  0  0  0  0  0  0
  -26.2937    0.5768  -33.6660 C   0  0  0  0  0  0  0  0  0  0  0  0
  -26.1193    4.3915  -37.7357 C   0  0  0  0  0  0  0  0  0  0  0  0
  -26.0319    7.7357  -29.9692 C   0  0  0  0  0  0  0  0  0  0  0  0
  -25.5848   -0.1479  -31.4787 C   0  0  0  0  0  0  0  0  0  0  0  0
  -25.7053    5.5346  -32.1728 C   0  0  0  0  0  0  0  0  0  0  0  0
  -25.4459    0.7097  -32.5626 C   0  0  0  0  0  0  0  0  0  0  0  0
  -25.3722    4.1226  -32.8401 C   0  0  0  0  0  0  0  0  0  0  0  0
  -25.4274    5.6867  -37.9357 C   0  0  0  0  0  0  0  0  0  0  0  0
  -25.0096    3.1036  -31.7789 C   0  0  0  0  0  0  0  0  0  0  0  0
  -25.1360    3.2238  -37.5587 C   0  0  0  0  0  0  0  0  0  0  0  0
  -24.6885    7.1050  -30.2088 C   0  0  0  0  0  0  0  0  0  0  0  0
  -24.3695    1.8518  -32.4020 C   0  0  0  0  0  0  0  0  0  0  0  0
  -24.3861    3.2074  -36.2554 C   0  0  0  0  0  0  0  0  0  0  0  0
  -24.2318    3.9213  -33.8796 C   0  0  0  0  0  0  0  0  0  0  0  0
  -24.4432    6.3032  -31.6622 C   0  0  0  0  0  0  0  0  0  0  0  0
  -23.6889    2.4428  -33.6223 C   0  0  0  0  0  0  0  0  0  0  0  0
  -22.0555   -1.7037  -31.3069 C   0  0  0  0  0  0  0  0  0  0  0  0
  -21.6524   -2.9273  -30.8456 C   0  0  0  0  0  0  0  0  0  0  0  0
  -21.5833    2.6571  -32.4690 C   0  0  0  0  0  0  0  0  0  0  0  0
  -21.1573   -0.6300  -31.3083 C   0  0  0  0  0  0  0  0  0  0  0  0
  -20.7885    1.4021  -32.3548 C   0  0  0  0  0  0  0  0  0  0  0  0
  -20.3493   -3.1045  -30.3710 C   0  0  0  0  0  0  0  0  0  0  0  0
  -19.9857   -4.4651  -29.8353 C   0  0  0  0  0  0  0  0  0  0  0  0
  -19.7982   -0.7868  -30.9067 C   0  0  0  0  0  0  0  0  0  0  0  0
  -19.4118   -2.0594  -30.4121 C   0  0  0  0  0  0  0  0  0  0  0  0
  -19.3969    1.5881  -31.7266 C   0  0  0  0  0  0  0  0  0  0  0  0
  -18.7929    0.3276  -31.0480 C   0  0  0  0  0  0  0  0  0  0  0  0
  -27.1574    4.4886  -30.4622 O   0  0  0  0  0  0  0  0  0  0  0  0
  -27.1385    6.9149  -30.4317 O   0  0  0  0  0  0  0  0  0  0  0  0
  -23.3950    2.5467  -36.2047 O   0  0  0  0  0  0  0  0  0  0  0  0
  -23.4218    5.7647  -31.8878 O   0  0  0  0  0  0  0  0  0  0  0  0
  -22.2343    2.5582  -33.5604 O   0  0  0  0  0  0  0  0  0  0  0  0
  -21.7299    3.4886  -31.6084 O   0  0  0  0  0  0  0  0  0  0  0  0
  -21.6257    0.4956  -31.7802 O   0  0  0  0  0  0  0  0  0  0  0  0
  -18.5619    1.8651  -32.8963 O   0  0  0  0  0  0  0  0  0  0  0  0
  -24.8811    3.9281  -35.2229 N   0  0  0  0  0  0  0  0  0  0  0  0
  -19.1852   -5.2961  -30.7633 N   0  0  0  0  0  0  0  0  0  0  0  0
  1  2  2  0
  1  4  1  0
  2  5  1  0
  3  4  2  0
  3  6  1  0
  4  7  1  0
  5  8  2  0
  6  9  2  0
  7  8  1  0
  7 10  2  0
  9 10  1  0
 10 44  1  0
 11 12  2  0
 11 14  1  0
 12 16  1  0
 13 17  1  0
 14 19  2  0
 15 20  1  0
 15 43  2  0
 16 21  2  0
 17 23  1  0
 17 25  1  0
 18 26  1  0
 18 44  1  0
 19 21  1  0
 20 22  1  0
 20 30  1  0
 21 27  1  0
 22 24  1  0
 22 29  1  0
 24 27  1  0
 25 28  1  0
 26 30  1  0
 27 31  1  0
 28 45  2  0
 28 51  1  0
 29 31  1  0
 29 51  1  0
 30 46  2  0
 31 47  1  0
 32 33  2  0
 32 35  1  0
 33 37  1  0
 34 36  1  0
 34 47  1  0
 34 48  2  0
 35 39  2  0
 35 49  1  0
 36 41  1  0
 36 49  1  0
 37 38  1  0
 37 40  2  0
 38 52  1  0
 39 40  1  0
 39 42  1  0
 41 42  1  0
 41 50  1  0
M  END
$$$$

     RDKit          3D

 53 59  0  0  0  0  0  0  0  0999 V2000
  -31.0908   -0.2047  -35.4028 C   0  0  0  0  0  0  0  0  0  0  0  0
  -29.2648    0.4393  -34.0186 C   0  0  0  0  0  0  0  0  0  0  0  0
  -28.9145    1.5578  -34.7483 C   0  0  0  0  0  0  0  0  0  0  0  0
  -28.3243   -0.1498  -33.1481 C   0  0  0  0  0  0  0  0  0  0  0  0
  -27.6112    2.0637  -34.6264 C   0  0  0  0  0  0  0  0  0  0  0  0
  -27.5147    8.8728  -32.2916 C   0  0  0  0  0  0  0  0  0  0  0  0
  -27.3521    4.7724  -30.3888 C   0  0  0  0  0  0  0  0  0  0  0  0
  -27.2936    5.7057  -38.0423 C   0  0  0  0  0  0  0  0  0  0  0  0
  -27.4401    6.1421  -30.7219 C   0  0  0  0  0  0  0  0  0  0  0  0
  -27.3028    7.1215  -38.5514 C   0  0  0  0  0  0  0  0  0  0  0  0
  -27.0396    0.4046  -32.9007 C   0  0  0  0  0  0  0  0  0  0  0  0
  -26.9296    4.6847  -39.0523 C   0  0  0  0  0  0  0  0  0  0  0  0
  -26.7034    1.4879  -33.7085 C   0  0  0  0  0  0  0  0  0  0  0  0
  -26.2148    2.5156  -30.4047 C   0  0  0  0  0  0  0  0  0  0  0  0
  -26.2832    3.9780  -30.8513 C   0  0  0  0  0  0  0  0  0  0  0  0
  -26.4550    6.7220  -31.4774 C   0  0  0  0  0  0  0  0  0  0  0  0
  -26.2911    8.1800  -31.7096 C   0  0  0  0  0  0  0  0  0  0  0  0
  -26.1743   -0.2293  -31.8128 C   0  0  0  0  0  0  0  0  0  0  0  0
  -26.0128    3.5683  -35.5648 C   0  0  0  0  0  0  0  0  0  0  0  0
  -25.8948    4.6990  -36.4731 C   0  0  0  0  0  0  0  0  0  0  0  0
  -25.8527    8.7163  -30.3238 C   0  0  0  0  0  0  0  0  0  0  0  0
  -25.3117    4.5881  -31.7188 C   0  0  0  0  0  0  0  0  0  0  0  0
  -25.3949    5.9714  -32.0302 C   0  0  0  0  0  0  0  0  0  0  0  0
  -24.9630    0.3831  -31.2050 C   0  0  0  0  0  0  0  0  0  0  0  0
  -24.9703    1.6669  -30.5967 C   0  0  0  0  0  0  0  0  0  0  0  0
  -25.1358    8.2177  -32.7131 C   0  0  0  0  0  0  0  0  0  0  0  0
  -24.8873    2.6536  -35.9640 C   0  0  0  0  0  0  0  0  0  0  0  0
  -24.6238    4.7102  -37.1698 C   0  0  0  0  0  0  0  0  0  0  0  0
  -23.7965    3.6430  -36.4799 C   0  0  0  0  0  0  0  0  0  0  0  0
  -23.6777   -0.3438  -31.0808 C   0  0  0  0  0  0  0  0  0  0  0  0
  -23.4536   -1.6816  -31.5097 C   0  0  0  0  0  0  0  0  0  0  0  0
  -22.9761    4.2743  -35.3356 C   0  0  0  0  0  0  0  0  0  0  0  0
  -23.1378    7.0155  -32.8612 C   0  0  0  0  0  0  0  0  0  0  0  0
  -22.6434    0.3666  -30.4209 C   0  0  0  0  0  0  0  0  0  0  0  0
  -22.4737    7.0269  -31.4789 C   0  0  0  0  0  0  0  0  0  0  0  0
  -22.2143   -2.3369  -31.2406 C   0  0  0  0  0  0  0  0  0  0  0  0
  -22.4265    6.0815  -33.7993 C   0  0  0  0  0  0  0  0  0  0  0  0
  -21.3217   -0.3102  -30.2082 C   0  0  0  0  0  0  0  0  0  0  0  0
  -21.1653   -1.6690  -30.5786 C   0  0  0  0  0  0  0  0  0  0  0  0
  -20.2263    0.3656  -29.5996 C   0  0  0  0  0  0  0  0  0  0  0  0
  -19.9118   -2.3302  -30.3285 C   0  0  0  0  0  0  0  0  0  0  0  0
  -18.9919   -0.2739  -29.3932 C   0  0  0  0  0  0  0  0  0  0  0  0
  -18.8675   -1.6146  -29.7587 C   0  0  0  0  0  0  0  0  0  0  0  0
  -30.5447   -0.0523  -34.1332 O   0  0  0  0  0  0  0  0  0  0  0  0
  -28.7781   -1.3616  -32.6645 O   0  0  0  0  0  0  0  0  0  0  0  0
  -27.3642    3.1630  -35.4455 O   0  0  0  0  0  0  0  0  0  0  0  0
  -26.8770    5.5833  -36.6755 O   0  0  0  0  0  0  0  0  0  0  0  0
  -26.5997   -1.2656  -31.2700 O   0  0  0  0  0  0  0  0  0  0  0  0
  -24.5793    6.8239  -32.8297 O   0  0  0  0  0  0  0  0  0  0  0  0
  -23.0543    5.5834  -35.0785 O   0  0  0  0  0  0  0  0  0  0  0  0
  -22.8909    3.0542  -37.4061 O   0  0  0  0  0  0  0  0  0  0  0  0
  -22.2375    3.5455  -34.6863 O   0  0  0  0  0  0  0  0  0  0  0  0
  -23.2883    1.9650  -29.9766 S   0  0  0  0  0  0  0  0  0  0  0  0
  1 44  1  0
  2  3  2  0
  2  4  1  0
  2 44  1  0
  3  5  1  0
  4 11  2  0
  4 45  1  0
  5 13  2  0
  5 46  1  0
  6 17  1  0
  7  9  1  0
  7 15  2  0
  8 10  1  0
  8 12  1  0
  8 47  1  0
  9 16  2  0
 11 13  1  0
 11 18  1  0
 14 15  1  0
 14 25  1  0
 15 22  1  0
 16 17  1  0
 16 23  1  0
 17 21  1  0
 17 26  1  0
 18 24  1  0
 18 48  2  0
 19 20  1  0
 19 27  1  0
 19 46  1  0
 20 28  1  0
 20 47  1  0
 22 23  2  0
 23 49  1  0
 24 25  2  0
 24 30  1  0
 25 53  1  0
 27 29  1  0
 28 29  1  0
 29 32  1  0
 29 51  1  0
 30 31  2  0
 30 34  1  0
 31 36  1  0
 32 50  1  0
 32 52  2  0
 33 35  1  0
 33 37  1  0
 33 49  1  0
 34 38  2  0
 34 53  1  0
 36 39  2  0
 37 50  1  0
 38 39  1  0
 38 40  1  0
 39 41  1  0
 40 42  2  0
 41 43  2  0
 42 43  1  0
M  END
$$$$

     RDKit          3D

 42 43  0  0  0  0  0  0  0  0999 V2000
  -31.0360    1.2438  -34.0623 C   0  0  0  0  0  0  0  0  0  0  0  0
  -29.7853    0.8434  -34.8373 C   0  0  0  0  0  0  0  0  0  0  0  0
  -29.0649   -0.8396  -33.0191 C   0  0  0  0  0  0  0  0  0  0  0  0
  -28.7095    0.1828  -33.9086 C   0  0  0  0  0  0  0  0  0  0  0  0
  -28.0427   -1.4609  -32.2025 C   0  0  0  0  0  0  0  0  0  0  0  0
  -27.3890    0.6081  -33.9667 C   0  0  0  0  0  0  0  0  0  0  0  0
  -26.7138   -1.0467  -32.3344 C   0  0  0  0  0  0  0  0  0  0  0  0
  -26.3969   -0.0330  -33.2184 C   0  0  0  0  0  0  0  0  0  0  0  0
  -26.0441    5.4097  -34.1436 C   0  0  0  0  0  0  0  0  0  0  0  0
  -24.9629    0.4522  -33.3483 C   0  0  0  0  0  0  0  0  0  0  0  0
  -25.1973    6.5856  -36.1433 C   0  0  0  0  0  0  0  0  0  0  0  0
  -24.7797    6.0903  -34.7920 C   0  0  0  0  0  0  0  0  0  0  0  0
  -24.3024    0.9953  -32.0656 C   0  0  0  0  0  0  0  0  0  0  0  0
  -23.9635    4.2698  -33.4748 C   0  0  0  0  0  0  0  0  0  0  0  0
  -23.8572    2.4199  -32.3422 C   0  0  0  0  0  0  0  0  0  0  0  0
  -23.6863    3.9021  -35.8193 C   0  0  0  0  0  0  0  0  0  0  0  0
  -23.6917    4.9954  -34.7549 C   0  0  0  0  0  0  0  0  0  0  0  0
  -22.9892   -0.9367  -31.1034 C   0  0  0  0  0  0  0  0  0  0  0  0
  -22.2103    5.5982  -34.5156 C   0  0  0  0  0  0  0  0  0  0  0  0
  -21.6200   -1.5159  -30.9530 C   0  0  0  0  0  0  0  0  0  0  0  0
  -21.6924    6.0544  -37.7403 C   0  0  0  0  0  0  0  0  0  0  0  0
  -21.4412   -2.8895  -31.0145 C   0  0  0  0  0  0  0  0  0  0  0  0
  -20.5400   -0.6629  -30.8548 C   0  0  0  0  0  0  0  0  0  0  0  0
  -20.3522    5.6440  -37.2264 C   0  0  0  0  0  0  0  0  0  0  0  0
  -20.1192   -3.4010  -30.8636 C   0  0  0  0  0  0  0  0  0  0  0  0
  -19.2520   -1.1598  -30.6911 C   0  0  0  0  0  0  0  0  0  0  0  0
  -19.0611   -2.5405  -30.7262 C   0  0  0  0  0  0  0  0  0  0  0  0
  -25.2106    1.0236  -31.0099 O   0  0  0  0  0  0  0  0  0  0  0  0
  -24.0216    4.9542  -38.5029 O   0  0  0  0  0  0  0  0  0  0  0  0
  -23.9501   -1.5629  -30.7195 O   0  0  0  0  0  0  0  0  0  0  0  0
  -23.2422    2.9952  -31.4438 O   0  0  0  0  0  0  0  0  0  0  0  0
  -22.7159    3.8073  -36.7858 O   0  0  0  0  0  0  0  0  0  0  0  0
  -21.9766    3.8600  -39.1462 O   0  0  0  0  0  0  0  0  0  0  0  0
  -24.1726    2.9487  -33.4963 N   0  0  0  0  0  0  0  0  0  0  0  0
  -23.0655    0.2818  -31.7232 N   0  0  0  0  0  0  0  0  0  0  0  0
  -32.0599    1.5657  -34.8765 F   0  0  0  0  0  0  0  0  0  0  0  0
  -31.4923    0.1111  -33.4933 F   0  0  0  0  0  0  0  0  0  0  0  0
  -30.7519    2.2968  -33.2889 F   0  0  0  0  0  0  0  0  0  0  0  0
  -30.1327   -0.0422  -35.8373 F   0  0  0  0  0  0  0  0  0  0  0  0
  -29.2282    1.9720  -35.4517 F   0  0  0  0  0  0  0  0  0  0  0  0
  -28.2768   -2.4330  -31.3868 F   0  0  0  0  0  0  0  0  0  0  0  0
  -22.6650    4.6420  -38.0679 P   0  0  0  0  0  0  0  0  0  0  0  0
  1  2  1  0
  1 36  1  0
  1 37  1  0
  1 38  1  0
  2  4  1  0
  2 39  1  0
  2 40  1  0
  3  4  2  0
  3  5  1  0
  4  6  1  0
  5  7  2  0
  5 41  1  0
  6  8  2  0
  7  8  1  0
  8 10  1  0
  9 12  1  0
 10 13  1  0
 11 12  1  0
 12 17  1  0
 13 15  1  0
 13 28  1  0
 13 35  1  0
 14 17  1  0
 14 34  1  0
 15 31  2  0
 15 34  1  0
 16 17  1  0
 16 32  1  0
 17 19  1  0
 18 20  1  0
 18 30  2  0
 18 35  1  0
 20 22  1  0
 20 23  2  0
 21 24  1  0
 21 42  1  0
 22 25  1  0
 23 26  1  0
 25 27  2  0
 26 27  1  0
 29 42  1  0
 32 42  1  0
 33 42  1  0
M  END
$$$$

     RDKit          3D

 39 42  0  0  0  0  0  0  0  0999 V2000
  -31.1044   -0.5618  -36.2842 C   0  0  0  0  0  0  0  0  0  0  0  0
  -30.7676   -1.3522  -35.1526 C   0  0  0  0  0  0  0  0  0  0  0  0
  -30.4683    0.6338  -36.5654 C   0  0  0  0  0  0  0  0  0  0  0  0
  -29.7483   -0.8677  -34.2872 C   0  0  0  0  0  0  0  0  0  0  0  0
  -29.8089    7.4580  -28.1813 C   0  0  0  0  0  0  0  0  0  0  0  0
  -29.4864    1.0844  -35.6881 C   0  0  0  0  0  0  0  0  0  0  0  0
  -29.0892    0.3254  -34.5976 C   0  0  0  0  0  0  0  0  0  0  0  0
  -27.8550    0.6540  -33.8963 C   0  0  0  0  0  0  0  0  0  0  0  0
  -27.8415    1.8908  -33.1339 C   0  0  0  0  0  0  0  0  0  0  0  0
  -27.9446    7.2059  -31.0685 C   0  0  0  0  0  0  0  0  0  0  0  0
  -27.8534    7.5017  -29.7073 C   0  0  0  0  0  0  0  0  0  0  0  0
  -26.9307    6.4744  -31.6897 C   0  0  0  0  0  0  0  0  0  0  0  0
  -26.6598    7.1797  -29.0142 C   0  0  0  0  0  0  0  0  0  0  0  0
  -26.2836    3.3877  -32.0682 C   0  0  0  0  0  0  0  0  0  0  0  0
  -25.7563    6.0754  -30.9614 C   0  0  0  0  0  0  0  0  0  0  0  0
  -25.6798    2.7906  -30.8201 C   0  0  0  0  0  0  0  0  0  0  0  0
  -25.6113    6.4718  -29.6198 C   0  0  0  0  0  0  0  0  0  0  0  0
  -25.1718    4.2619  -32.5215 C   0  0  0  0  0  0  0  0  0  0  0  0
  -24.6544    0.6840  -30.7139 C   0  0  0  0  0  0  0  0  0  0  0  0
  -24.2947    2.1311  -30.9013 C   0  0  0  0  0  0  0  0  0  0  0  0
  -23.9901    3.5704  -33.1197 C   0  0  0  0  0  0  0  0  0  0  0  0
  -23.4784   -1.5294  -30.8553 C   0  0  0  0  0  0  0  0  0  0  0  0
  -22.0510   -2.0137  -30.8166 C   0  0  0  0  0  0  0  0  0  0  0  0
  -21.9032   -3.3784  -30.8074 C   0  0  0  0  0  0  0  0  0  0  0  0
  -20.9608   -1.1203  -30.7084 C   0  0  0  0  0  0  0  0  0  0  0  0
  -20.5822   -3.9382  -30.6860 C   0  0  0  0  0  0  0  0  0  0  0  0
  -19.6859   -1.6927  -30.6627 C   0  0  0  0  0  0  0  0  0  0  0  0
  -18.4825   -0.9224  -28.1711 C   0  0  0  0  0  0  0  0  0  0  0  0
  -18.4580   -0.7784  -30.6086 C   0  0  0  0  0  0  0  0  0  0  0  0
  -28.8468    2.4616  -32.6974 O   0  0  0  0  0  0  0  0  0  0  0  0
  -28.8886    8.1623  -29.0887 O   0  0  0  0  0  0  0  0  0  0  0  0
  -25.7682    0.2010  -30.7537 O   0  0  0  0  0  0  0  0  0  0  0  0
  -26.6271    2.4125  -33.0010 N   0  0  0  0  0  0  0  0  0  0  0  0
  -24.8291    5.2635  -31.5873 N   0  0  0  0  0  0  0  0  0  0  0  0
  -23.5350   -0.0575  -30.6910 N   0  0  0  0  0  0  0  0  0  0  0  0
  -19.5383   -3.0472  -30.5972 N   0  0  0  0  0  0  0  0  0  0  0  0
  -18.4593   -0.0451  -29.3470 N   0  0  0  0  0  0  0  0  0  0  0  0
  -23.0728    2.3813  -32.1557 S   0  0  0  0  0  0  0  0  0  0  0  0
  -32.0301   -1.0234  -37.0691 F   0  0  0  0  0  0  0  0  0  0  0  0
  1  2  2  0
  1  3  1  0
  1 39  1  0
  2  4  1  0
  3  6  2  0
  4  7  2  0
  5 31  1  0
  6  7  1  0
  7  8  1  0
  8  9  1  0
  9 30  2  0
  9 33  1  0
 10 11  2  0
 10 12  1  0
 11 13  1  0
 11 31  1  0
 12 15  1  0
 13 17  1  0
 14 16  1  0
 14 18  1  0
 14 33  1  0
 15 17  2  0
 15 34  1  0
 16 20  1  0
 18 21  1  0
 18 34  1  0
 19 20  1  0
 19 32  2  0
 19 35  1  0
 20 38  1  0
 21 38  1  0
 22 23  1  0
 22 35  1  0
 23 24  2  0
 23 25  1  0
 24 26  1  0
 25 27  1  0
 26 36  1  0
 27 29  1  0
 27 36  2  0
 28 37  1  0
 29 37  1  0
M  END
$$$$

     RDKit          3D

 36 41  0  0  0  0  0  0  0  0999 V2000
  -29.5826   -0.2914  -33.0742 C   0  0  0  0  0  0  0  0  0  0  0  0
  -29.0310    1.0174  -33.3571 C   0  0  0  0  0  0  0  0  0  0  0  0
  -28.6677   -1.3950  -33.0893 C   0  0  0  0  0  0  0  0  0  0  0  0
  -27.7382    1.2169  -33.6982 C   0  0  0  0  0  0  0  0  0  0  0  0
  -27.3575   -1.1402  -33.4021 C   0  0  0  0  0  0  0  0  0  0  0  0
  -26.9104    0.1114  -33.7409 C   0  0  0  0  0  0  0  0  0  0  0  0
  -26.7963    3.3755  -32.9169 C   0  0  0  0  0  0  0  0  0  0  0  0
  -26.4593    2.5479  -35.3002 C   0  0  0  0  0  0  0  0  0  0  0  0
  -25.8269    2.6809  -32.0247 C   0  0  0  0  0  0  0  0  0  0  0  0
  -24.4437    2.4119  -32.5098 C   0  0  0  0  0  0  0  0  0  0  0  0
  -23.8601    1.2169  -32.0665 C   0  0  0  0  0  0  0  0  0  0  0  0
  -23.8615    3.3871  -33.3572 C   0  0  0  0  0  0  0  0  0  0  0  0
  -23.0994   -1.2893  -30.8978 C   0  0  0  0  0  0  0  0  0  0  0  0
  -22.7818   -2.4626  -30.2294 C   0  0  0  0  0  0  0  0  0  0  0  0
  -22.5241    0.8484  -32.1069 C   0  0  0  0  0  0  0  0  0  0  0  0
  -22.5284    3.4380  -33.7789 C   0  0  0  0  0  0  0  0  0  0  0  0
  -22.1319   -0.4018  -31.3598 C   0  0  0  0  0  0  0  0  0  0  0  0
  -22.0867    4.4626  -34.7312 C   0  0  0  0  0  0  0  0  0  0  0  0
  -22.1666    5.8108  -34.4904 C   0  0  0  0  0  0  0  0  0  0  0  0
  -21.7282    6.5191  -35.6213 C   0  0  0  0  0  0  0  0  0  0  0  0
  -21.4688    1.5866  -32.6472 C   0  0  0  0  0  0  0  0  0  0  0  0
  -21.7008    7.9215  -35.7910 C   0  0  0  0  0  0  0  0  0  0  0  0
  -21.4493   -2.7720  -29.9823 C   0  0  0  0  0  0  0  0  0  0  0  0
  -21.2493    5.6943  -36.6791 C   0  0  0  0  0  0  0  0  0  0  0  0
  -21.1689    8.4505  -36.9366 C   0  0  0  0  0  0  0  0  0  0  0  0
  -20.8034   -0.7159  -31.0947 C   0  0  0  0  0  0  0  0  0  0  0  0
  -20.7078    6.2161  -37.8508 C   0  0  0  0  0  0  0  0  0  0  0  0
  -20.4863   -1.8997  -30.4360 C   0  0  0  0  0  0  0  0  0  0  0  0
  -20.6833    7.6141  -37.9445 C   0  0  0  0  0  0  0  0  0  0  0  0
  -19.7567    0.2193  -31.4103 C   0  0  0  0  0  0  0  0  0  0  0  0
  -26.2160    2.2545  -30.9187 O   0  0  0  0  0  0  0  0  0  0  0  0
  -18.6162    0.0601  -31.1458 O   0  0  0  0  0  0  0  0  0  0  0  0
  -27.1806    2.4889  -34.0374 N   0  0  0  0  0  0  0  0  0  0  0  0
  -21.5318    2.6925  -33.3810 N   0  0  0  0  0  0  0  0  0  0  0  0
  -20.1345    1.3264  -32.1886 N   0  0  0  0  0  0  0  0  0  0  0  0
  -21.4515    4.0880  -36.1980 S   0  0  0  0  0  0  0  0  0  0  0  0
  1  2  1  0
  1  3  1  0
  2  4  2  0
  3  5  2  0
  4  6  1  0
  4 33  1  0
  5  6  1  0
  7  9  1  0
  7 33  1  0
  8 33  1  0
  9 10  1  0
  9 31  2  0
 10 11  1  0
 10 12  2  0
 11 15  2  0
 12 16  1  0
 13 14  1  0
 13 17  2  0
 14 23  1  0
 15 17  1  0
 15 21  1  0
 16 18  1  0
 16 34  2  0
 17 26  1  0
 18 19  1  0
 18 36  1  0
 19 20  1  0
 20 22  1  0
 20 24  1  0
 21 34  1  0
 21 35  2  0
 22 25  2  0
 23 28  2  0
 24 27  2  0
 24 36  1  0
 25 29  1  0
 26 28  1  0
 26 30  1  0
 27 29  1  0
 30 32  2  0
 30 35  1  0
M  END
$$$$

     RDKit          3D

 47 51  0  0  0  0  0  0  0  0999 V2000
  -30.4809    8.2520  -33.1339 C   0  0  0  0  0  0  0  0  0  0  0  0
  -30.2164    7.3727  -35.4771 C   0  0  0  0  0  0  0  0  0  0  0  0
  -30.0029    7.2258  -33.9905 C   0  0  0  0  0  0  0  0  0  0  0  0
  -30.1161    8.2613  -31.7962 C   0  0  0  0  0  0  0  0  0  0  0  0
  -29.2638    6.1605  -33.4904 C   0  0  0  0  0  0  0  0  0  0  0  0
  -29.3194    7.2310  -31.2504 C   0  0  0  0  0  0  0  0  0  0  0  0
  -28.9118    6.1440  -32.1295 C   0  0  0  0  0  0  0  0  0  0  0  0
  -28.1090    5.0736  -31.5328 C   0  0  0  0  0  0  0  0  0  0  0  0
  -27.8116    3.7055  -32.1548 C   0  0  0  0  0  0  0  0  0  0  0  0
  -27.8593    6.4976  -29.5145 C   0  0  0  0  0  0  0  0  0  0  0  0
  -27.5056    5.3551  -30.2962 C   0  0  0  0  0  0  0  0  0  0  0  0
  -26.7664   -1.0622  -31.9277 C   0  0  0  0  0  0  0  0  0  0  0  0
  -26.8155    3.8459  -33.3286 C   0  0  0  0  0  0  0  0  0  0  0  0
  -26.4882    2.5414  -33.9941 C   0  0  0  0  0  0  0  0  0  0  0  0
  -25.4405    2.8384  -35.0809 C   0  0  0  0  0  0  0  0  0  0  0  0
  -24.4381   -0.9307  -31.2611 C   0  0  0  0  0  0  0  0  0  0  0  0
  -24.3743    0.3309  -31.8310 C   0  0  0  0  0  0  0  0  0  0  0  0
  -24.2663    1.9007  -34.9880 C   0  0  0  0  0  0  0  0  0  0  0  0
  -23.2713   -1.6257  -30.8069 C   0  0  0  0  0  0  0  0  0  0  0  0
  -23.2127    2.3258  -32.6305 C   0  0  0  0  0  0  0  0  0  0  0  0
  -23.1648    0.9282  -32.0890 C   0  0  0  0  0  0  0  0  0  0  0  0
  -22.9928    2.3394  -34.1842 C   0  0  0  0  0  0  0  0  0  0  0  0
  -22.4785    3.7217  -34.7285 C   0  0  0  0  0  0  0  0  0  0  0  0
  -22.2244    4.4211  -32.3628 C   0  0  0  0  0  0  0  0  0  0  0  0
  -22.2707    4.8094  -33.6909 C   0  0  0  0  0  0  0  0  0  0  0  0
  -22.2108    5.3267  -31.3521 C   0  0  0  0  0  0  0  0  0  0  0  0
  -22.2737    6.2178  -34.0207 C   0  0  0  0  0  0  0  0  0  0  0  0
  -22.3328    6.7053  -31.6531 C   0  0  0  0  0  0  0  0  0  0  0  0
  -22.0119   -1.0259  -31.0718 C   0  0  0  0  0  0  0  0  0  0  0  0
  -21.9597    0.2276  -31.7306 C   0  0  0  0  0  0  0  0  0  0  0  0
  -22.1745    4.8271  -29.9414 C   0  0  0  0  0  0  0  0  0  0  0  0
  -21.2201    7.9548  -29.9825 C   0  0  0  0  0  0  0  0  0  0  0  0
  -20.3769   -2.8468  -30.9638 C   0  0  0  0  0  0  0  0  0  0  0  0
  -31.2710    7.9767  -35.8991 O   0  0  0  0  0  0  0  0  0  0  0  0
  -31.2669    9.2458  -33.6353 O   0  0  0  0  0  0  0  0  0  0  0  0
  -29.4564    6.7675  -36.2083 O   0  0  0  0  0  0  0  0  0  0  0  0
  -28.8925    7.3773  -29.9271 O   0  0  0  0  0  0  0  0  0  0  0  0
  -25.6693   -1.4850  -31.0987 O   0  0  0  0  0  0  0  0  0  0  0  0
  -24.1885    0.6788  -35.4323 O   0  0  0  0  0  0  0  0  0  0  0  0
  -23.3237   -2.7707  -30.1939 O   0  0  0  0  0  0  0  0  0  0  0  0
  -22.4554    7.6012  -30.6457 O   0  0  0  0  0  0  0  0  0  0  0  0
  -22.1130    3.0576  -32.0829 O   0  0  0  0  0  0  0  0  0  0  0  0
  -21.6635    3.6811  -35.6615 O   0  0  0  0  0  0  0  0  0  0  0  0
  -20.8608   -1.5867  -30.6000 O   0  0  0  0  0  0  0  0  0  0  0  0
  -20.7779    0.7018  -32.0465 O   0  0  0  0  0  0  0  0  0  0  0  0
  -20.8414    4.6574  -29.6382 O   0  0  0  0  0  0  0  0  0  0  0  0
  -22.3242    7.1651  -32.9704 N   0  0  0  0  0  0  0  0  0  0  0  0
  1  3  2  0
  1  4  1  0
  1 35  1  0
  2  3  1  0
  2 34  2  0
  2 36  1  0
  3  5  1  0
  4  6  2  0
  5  7  2  0
  6  7  1  0
  6 37  1  0
  7  8  1  0
  8  9  1  0
  8 11  2  0
  9 13  1  0
 10 11  1  0
 10 37  1  0
 12 38  1  0
 13 14  1  0
 14 15  1  0
 15 18  1  0
 16 17  2  0
 16 19  1  0
 16 38  1  0
 17 21  1  0
 18 22  1  0
 18 39  1  0
 19 29  2  0
 19 40  1  0
 20 21  1  0
 20 22  1  0
 20 42  1  0
 21 30  2  0
 22 23  1  0
 23 25  1  0
 23 43  2  0
 24 25  2  0
 24 26  1  0
 24 42  1  0
 25 27  1  0
 26 28  2  0
 26 31  1  0
 27 47  2  0
 28 41  1  0
 28 47  1  0
 29 30  1  0
 29 44  1  0
 30 45  1  0
 31 46  1  0
 32 41  1  0
 33 44  1  0
M  END
$$$$

     RDKit          3D

 50 55  0  0  0  0  0  0  0  0999 V2000
  -30.3452   -0.2039  -35.1334 C   0  0  0  0  0  0  0  0  0  0  0  0
  -29.5549    7.5372  -30.6044 C   0  0  0  0  0  0  0  0  0  0  0  0
  -28.9457   -1.0511  -33.1305 C   0  0  0  0  0  0  0  0  0  0  0  0
  -28.8661    0.4896  -35.0333 C   0  0  0  0  0  0  0  0  0  0  0  0
  -28.9335    7.1979  -29.3835 C   0  0  0  0  0  0  0  0  0  0  0  0
  -28.8615    7.6044  -31.7946 C   0  0  0  0  0  0  0  0  0  0  0  0
  -28.4173   -1.6637  -31.9953 C   0  0  0  0  0  0  0  0  0  0  0  0
  -28.1609   -0.1966  -33.9559 C   0  0  0  0  0  0  0  0  0  0  0  0
  -27.5674    6.8776  -29.3794 C   0  0  0  0  0  0  0  0  0  0  0  0
  -27.5129    7.2772  -31.8205 C   0  0  0  0  0  0  0  0  0  0  0  0
  -27.0891   -1.5012  -31.6903 C   0  0  0  0  0  0  0  0  0  0  0  0
  -26.7963   -0.0479  -33.6130 C   0  0  0  0  0  0  0  0  0  0  0  0
  -26.8240    6.9231  -30.6342 C   0  0  0  0  0  0  0  0  0  0  0  0
  -26.2629   -0.7477  -32.4820 C   0  0  0  0  0  0  0  0  0  0  0  0
  -25.3272    6.5932  -30.7296 C   0  0  0  0  0  0  0  0  0  0  0  0
  -24.8297    6.2107  -29.3312 C   0  0  0  0  0  0  0  0  0  0  0  0
  -24.5857    7.8766  -31.2111 C   0  0  0  0  0  0  0  0  0  0  0  0
  -23.7061    5.2007  -29.3416 C   0  0  0  0  0  0  0  0  0  0  0  0
  -23.6876    3.4265  -34.2803 C   0  0  0  0  0  0  0  0  0  0  0  0
  -23.1807    3.1549  -31.4946 C   0  0  0  0  0  0  0  0  0  0  0  0
  -22.9173    2.1516  -33.8636 C   0  0  0  0  0  0  0  0  0  0  0  0
  -22.7185    1.9687  -32.3434 C   0  0  0  0  0  0  0  0  0  0  0  0
  -22.6255   -0.3919  -31.7292 C   0  0  0  0  0  0  0  0  0  0  0  0
  -22.2608    4.2650  -31.7320 C   0  0  0  0  0  0  0  0  0  0  0  0
  -22.4244    5.1437  -32.9242 C   0  0  0  0  0  0  0  0  0  0  0  0
  -21.8334   -2.8895  -31.1576 C   0  0  0  0  0  0  0  0  0  0  0  0
  -21.7097   -1.4364  -31.2882 C   0  0  0  0  0  0  0  0  0  0  0  0
  -21.8992    4.7863  -35.2531 C   0  0  0  0  0  0  0  0  0  0  0  0
  -21.7639    6.1967  -35.5433 C   0  0  0  0  0  0  0  0  0  0  0  0
  -21.8376    6.7085  -28.9022 C   0  0  0  0  0  0  0  0  0  0  0  0
  -21.6064    4.8729  -30.5637 C   0  0  0  0  0  0  0  0  0  0  0  0
  -21.3268    3.8271  -36.1335 C   0  0  0  0  0  0  0  0  0  0  0  0
  -21.4061    7.9430  -29.6676 C   0  0  0  0  0  0  0  0  0  0  0  0
  -21.1707    3.4171  -29.4594 C   0  0  0  0  0  0  0  0  0  0  0  0
  -21.1873    6.5910  -36.7784 C   0  0  0  0  0  0  0  0  0  0  0  0
  -20.6694   -3.6447  -30.8636 C   0  0  0  0  0  0  0  0  0  0  0  0
  -20.4981   -0.7703  -31.0155 C   0  0  0  0  0  0  0  0  0  0  0  0
  -20.5318    4.2502  -37.2639 C   0  0  0  0  0  0  0  0  0  0  0  0
  -20.5772    5.6598  -37.6204 C   0  0  0  0  0  0  0  0  0  0  0  0
  -19.4480   -2.9885  -30.5289 C   0  0  0  0  0  0  0  0  0  0  0  0
  -19.3302   -1.5737  -30.6211 C   0  0  0  0  0  0  0  0  0  0  0  0
  -22.3532    6.3743  -32.8589 O   0  0  0  0  0  0  0  0  0  0  0  0
  -22.6788    4.4903  -34.1272 N   0  0  0  0  0  0  0  0  0  0  0  0
  -22.4282    5.7160  -29.8189 N   0  0  0  0  0  0  0  0  0  0  0  0
  -22.0983    0.7939  -31.7938 N   0  0  0  0  0  0  0  0  0  0  0  0
  -21.8467    3.0014  -31.7761 N   0  0  0  0  0  0  0  0  0  0  0  0
  -20.7313    0.5728  -31.2533 N   0  0  0  0  0  0  0  0  0  0  0  0
  -24.4000   -0.6930  -32.0867 S   0  0  0  0  0  0  0  0  0  0  0  0
  -30.8532    7.7549  -30.6125 F   0  0  0  0  0  0  0  0  0  0  0  0
  -29.8849    7.2410  -27.9656 Cl  0  0  0  0  0  0  0  0  0  0  0  0
  1  4  1  0
  2  5  2  0
  2  6  1  0
  2 49  1  0
  3  7  2  0
  3  8  1  0
  4  8  1  0
  5  9  1  0
  5 50  1  0
  6 10  2  0
  7 11  1  0
  8 12  2  0
  9 13  2  0
 10 13  1  0
 11 14  2  0
 12 14  1  0
 13 15  1  0
 14 48  1  0
 15 16  1  0
 15 17  1  0
 16 18  1  0
 18 44  1  0
 19 21  1  0
 19 43  1  0
 20 46  1  0
 21 22  1  0
 22 45  1  0
 22 46  1  0
 23 27  2  0
 23 45  1  0
 23 48  1  0
 24 25  1  0
 24 31  1  0
 24 46  1  0
 25 42  2  0
 25 43  1  0
 26 27  1  0
 26 36  1  0
 27 37  1  0
 28 29  1  0
 28 32  2  0
 28 43  1  0
 29 35  1  0
 30 33  1  0
 30 44  1  0
 31 34  1  0
 31 44  1  0
 32 38  1  0
 35 39  2  0
 36 40  2  0
 37 41  2  0
 37 47  1  0
 38 39  1  0
 40 41  1  0
 45 47  1  0
M  END
$$$$

     RDKit          3D

 39 43  0  0  0  0  0  0  0  0999 V2000
  -32.4410    4.8529  -37.5525 C   0  0  0  0  0  0  0  0  0  0  0  0
  -31.8922    3.4644  -37.2058 C   0  0  0  0  0  0  0  0  0  0  0  0
  -30.7330    5.0656  -39.2932 C   0  0  0  0  0  0  0  0  0  0  0  0
  -30.3519    3.4955  -37.2693 C   0  0  0  0  0  0  0  0  0  0  0  0
  -29.9561    3.8107  -38.7655 C   0  0  0  0  0  0  0  0  0  0  0  0
  -29.0623    0.8566  -34.9606 C   0  0  0  0  0  0  0  0  0  0  0  0
  -28.9096    1.8839  -35.9367 C   0  0  0  0  0  0  0  0  0  0  0  0
  -28.0513   -0.5553  -33.1592 C   0  0  0  0  0  0  0  0  0  0  0  0
  -27.9619    0.4637  -34.1801 C   0  0  0  0  0  0  0  0  0  0  0  0
  -27.6981    2.5265  -36.1099 C   0  0  0  0  0  0  0  0  0  0  0  0
  -26.9260   -0.8119  -32.2536 C   0  0  0  0  0  0  0  0  0  0  0  0
  -26.7264    1.1011  -34.3629 C   0  0  0  0  0  0  0  0  0  0  0  0
  -26.6034    2.1164  -35.3554 C   0  0  0  0  0  0  0  0  0  0  0  0
  -25.5564    0.7559  -33.5206 C   0  0  0  0  0  0  0  0  0  0  0  0
  -25.0363    2.1500  -30.5463 C   0  0  0  0  0  0  0  0  0  0  0  0
  -24.6607   -0.1214  -31.5209 C   0  0  0  0  0  0  0  0  0  0  0  0
  -24.1072    0.9920  -30.8493 C   0  0  0  0  0  0  0  0  0  0  0  0
  -23.9121   -1.2982  -31.4793 C   0  0  0  0  0  0  0  0  0  0  0  0
  -22.5746   -1.3075  -31.0588 C   0  0  0  0  0  0  0  0  0  0  0  0
  -22.2206    3.8494  -26.6824 C   0  0  0  0  0  0  0  0  0  0  0  0
  -22.2365    4.5370  -27.8785 C   0  0  0  0  0  0  0  0  0  0  0  0
  -21.9810   -0.0809  -30.6541 C   0  0  0  0  0  0  0  0  0  0  0  0
  -21.8496   -2.5016  -31.1164 C   0  0  0  0  0  0  0  0  0  0  0  0
  -21.4489    2.6925  -26.5279 C   0  0  0  0  0  0  0  0  0  0  0  0
  -21.4468    4.0537  -28.9252 C   0  0  0  0  0  0  0  0  0  0  0  0
  -20.5268   -2.5350  -30.7600 C   0  0  0  0  0  0  0  0  0  0  0  0
  -20.6996    2.1912  -27.5918 C   0  0  0  0  0  0  0  0  0  0  0  0
  -20.6974    2.8864  -28.8223 C   0  0  0  0  0  0  0  0  0  0  0  0
  -20.1185    3.2231  -31.1710 C   0  0  0  0  0  0  0  0  0  0  0  0
  -19.8748   -1.3277  -30.4117 C   0  0  0  0  0  0  0  0  0  0  0  0
  -19.9130    2.3595  -30.0032 C   0  0  0  0  0  0  0  0  0  0  0  0
  -32.1665    5.0321  -38.9438 O   0  0  0  0  0  0  0  0  0  0  0  0
  -29.9684    2.1803  -36.7869 O   0  0  0  0  0  0  0  0  0  0  0  0
  -27.0908   -1.6193  -31.3162 O   0  0  0  0  0  0  0  0  0  0  0  0
  -25.7820    0.0550  -32.3155 N   0  0  0  0  0  0  0  0  0  0  0  0
  -22.7842    1.0461  -30.5323 N   0  0  0  0  0  0  0  0  0  0  0  0
  -20.5148   -0.0955  -30.3238 N   0  0  0  0  0  0  0  0  0  0  0  0
  -19.8498    1.0017  -30.1358 N   0  0  0  0  0  0  0  0  0  0  0  0
  -23.3281    5.9527  -27.9178 S   0  0  0  0  0  0  0  0  0  0  0  0
  1  2  1  0
  1 32  1  0
  2  4  1  0
  3  5  1  0
  3 32  1  0
  4  5  1  0
  4 33  1  0
  6  7  2  0
  6  9  1  0
  7 10  1  0
  7 33  1  0
  8  9  1  0
  8 11  1  0
  9 12  2  0
 10 13  2  0
 11 34  2  0
 11 35  1  0
 12 13  1  0
 12 14  1  0
 14 35  1  0
 15 17  1  0
 16 17  1  0
 16 18  1  0
 16 35  1  0
 17 36  1  0
 18 19  2  0
 19 22  1  0
 19 23  1  0
 20 21  2  0
 20 24  1  0
 21 25  1  0
 21 39  1  0
 22 36  2  0
 23 26  2  3
 24 27  2  0
 25 28  2  0
 26 30  1  0
 27 28  1  0
 28 31  1  0
 29 31  1  0
 30 37  1  0
 31 38  1  0
 37 38  1  0
M  END
$$$$

     RDKit          3D

 40 45  0  0  0  0  0  0  0  0999 V2000
  -31.4029    3.6832  -33.5593 C   0  0  0  0  0  0  0  0  0  0  0  0
  -30.7640    5.0259  -33.8569 C   0  0  0  0  0  0  0  0  0  0  0  0
  -30.1952    5.7397  -32.6338 C   0  0  0  0  0  0  0  0  0  0  0  0
  -29.3586   -0.9913  -33.9967 C   0  0  0  0  0  0  0  0  0  0  0  0
  -29.3337    6.9633  -32.9751 C   0  0  0  0  0  0  0  0  0  0  0  0
  -28.2490   -0.4681  -33.1298 C   0  0  0  0  0  0  0  0  0  0  0  0
  -27.8599    0.9156  -33.1677 C   0  0  0  0  0  0  0  0  0  0  0  0
  -27.8418    7.2165  -31.1211 C   0  0  0  0  0  0  0  0  0  0  0  0
  -27.6575   -1.3552  -32.1635 C   0  0  0  0  0  0  0  0  0  0  0  0
  -27.4868    7.8296  -29.8575 C   0  0  0  0  0  0  0  0  0  0  0  0
  -27.0626    6.1255  -31.5921 C   0  0  0  0  0  0  0  0  0  0  0  0
  -26.8229    1.3562  -32.3856 C   0  0  0  0  0  0  0  0  0  0  0  0
  -26.6088   -0.8709  -31.3691 C   0  0  0  0  0  0  0  0  0  0  0  0
  -26.4177    7.3043  -29.1106 C   0  0  0  0  0  0  0  0  0  0  0  0
  -26.1893    0.4767  -31.4697 C   0  0  0  0  0  0  0  0  0  0  0  0
  -26.0567    3.2241  -31.0418 C   0  0  0  0  0  0  0  0  0  0  0  0
  -26.0045    5.6281  -30.8068 C   0  0  0  0  0  0  0  0  0  0  0  0
  -25.4920    3.2337  -33.3720 C   0  0  0  0  0  0  0  0  0  0  0  0
  -25.6798    6.2162  -29.6096 C   0  0  0  0  0  0  0  0  0  0  0  0
  -25.0578    0.9234  -30.7107 C   0  0  0  0  0  0  0  0  0  0  0  0
  -25.1859    4.4329  -31.2333 C   0  0  0  0  0  0  0  0  0  0  0  0
  -24.7719    4.4171  -32.7179 C   0  0  0  0  0  0  0  0  0  0  0  0
  -24.5936    2.1901  -33.9438 C   0  0  0  0  0  0  0  0  0  0  0  0
  -23.1549   -0.5549  -31.0886 C   0  0  0  0  0  0  0  0  0  0  0  0
  -21.6978   -0.5462  -30.6385 C   0  0  0  0  0  0  0  0  0  0  0  0
  -21.6683   -0.1243  -29.1641 C   0  0  0  0  0  0  0  0  0  0  0  0
  -20.9991   -1.9349  -30.8929 C   0  0  0  0  0  0  0  0  0  0  0  0
  -20.7650    0.4510  -31.4707 C   0  0  0  0  0  0  0  0  0  0  0  0
  -20.3034   -0.2992  -28.4969 C   0  0  0  0  0  0  0  0  0  0  0  0
  -19.6312   -2.0323  -30.2482 C   0  0  0  0  0  0  0  0  0  0  0  0
  -19.2654   -0.6752  -29.6015 C   0  0  0  0  0  0  0  0  0  0  0  0
  -19.3345    0.5227  -30.7397 C   0  0  0  0  0  0  0  0  0  0  0  0
  -28.9100    7.6974  -31.8352 O   0  0  0  0  0  0  0  0  0  0  0  0
  -25.2413    2.1029  -30.0717 O   0  0  0  0  0  0  0  0  0  0  0  0
  -23.5674   -1.4634  -31.7723 O   0  0  0  0  0  0  0  0  0  0  0  0
  -26.4919    2.7507  -32.4144 N   0  0  0  0  0  0  0  0  0  0  0  0
  -23.8253    0.5775  -30.7797 N   0  0  0  0  0  0  0  0  0  0  0  0
  -30.4963   -0.6451  -33.3869 F   0  0  0  0  0  0  0  0  0  0  0  0
  -29.2451   -2.2386  -34.2102 F   0  0  0  0  0  0  0  0  0  0  0  0
  -29.4052   -0.4173  -35.1425 F   0  0  0  0  0  0  0  0  0  0  0  0
  1  2  1  0
  2  3  1  0
  3  5  1  0
  4  6  1  0
  4 38  1  0
  4 39  1  0
  4 40  1  0
  5 33  1  0
  6  7  1  0
  6  9  1  0
  7 12  2  0
  8 10  2  0
  8 11  1  0
  8 33  1  0
  9 13  2  0
 10 14  1  0
 11 17  2  0
 12 15  1  0
 12 36  1  0
 13 15  1  0
 14 19  2  0
 15 20  1  0
 16 21  1  0
 16 34  1  0
 16 36  1  0
 17 19  1  0
 17 21  1  0
 18 22  1  0
 18 23  1  0
 18 36  1  0
 20 34  1  0
 20 37  1  0
 21 22  1  0
 24 25  1  0
 24 35  2  0
 24 37  1  0
 25 26  1  0
 25 27  1  0
 25 28  1  0
 26 29  1  0
 27 30  1  0
 28 32  1  0
 29 31  1  0
 30 31  1  0
 31 32  1  0
M  END
$$$$

     RDKit          3D

 55 55  0  0  0  0  0  0  0  0999 V2000
  -32.8181    5.7473  -32.7352 C   0  0  0  0  0  0  0  0  0  0  0  0
  -31.8050    4.9743  -26.2835 C   0  0  0  0  0  0  0  0  0  0  0  0
  -31.5842    6.9802  -25.0369 C   0  0  0  0  0  0  0  0  0  0  0  0
  -31.2738    3.8358  -25.4055 C   0  0  0  0  0  0  0  0  0  0  0  0
  -30.9187    4.6216  -33.7762 C   0  0  0  0  0  0  0  0  0  0  0  0
  -30.5360    6.8251  -27.3618 C   0  0  0  0  0  0  0  0  0  0  0  0
  -30.2623    3.5972  -34.6741 C   0  0  0  0  0  0  0  0  0  0  0  0
  -29.9590    4.9664  -32.6125 C   0  0  0  0  0  0  0  0  0  0  0  0
  -29.6097    5.2134  -25.7660 C   0  0  0  0  0  0  0  0  0  0  0  0
  -29.2010    2.7476  -33.9750 C   0  0  0  0  0  0  0  0  0  0  0  0
  -29.0832    6.0384  -33.0680 C   0  0  0  0  0  0  0  0  0  0  0  0
  -29.1615    6.8356  -27.8632 C   0  0  0  0  0  0  0  0  0  0  0  0
  -28.7392   -0.5537  -33.4658 C   0  0  0  0  0  0  0  0  0  0  0  0
  -28.8380    1.5315  -34.8194 C   0  0  0  0  0  0  0  0  0  0  0  0
  -28.8200    7.5463  -29.0843 C   0  0  0  0  0  0  0  0  0  0  0  0
  -28.1873    6.6190  -32.1380 C   0  0  0  0  0  0  0  0  0  0  0  0
  -27.9330    0.5617  -34.0582 C   0  0  0  0  0  0  0  0  0  0  0  0
  -27.9447    7.9842  -32.3775 C   0  0  0  0  0  0  0  0  0  0  0  0
  -27.3704    7.4805  -29.4343 C   0  0  0  0  0  0  0  0  0  0  0  0
  -26.9530    1.0603  -33.0347 C   0  0  0  0  0  0  0  0  0  0  0  0
  -26.8873    6.2917  -30.1353 C   0  0  0  0  0  0  0  0  0  0  0  0
  -25.6678    1.6402  -33.3398 C   0  0  0  0  0  0  0  0  0  0  0  0
  -25.4062    2.7459  -31.1308 C   0  0  0  0  0  0  0  0  0  0  0  0
  -25.4516    6.0304  -30.2548 C   0  0  0  0  0  0  0  0  0  0  0  0
  -24.8657    1.9072  -32.1252 C   0  0  0  0  0  0  0  0  0  0  0  0
  -24.3837    7.0375  -30.5219 C   0  0  0  0  0  0  0  0  0  0  0  0
  -23.3214   -0.8235  -31.1009 C   0  0  0  0  0  0  0  0  0  0  0  0
  -23.4474    1.3438  -32.0305 C   0  0  0  0  0  0  0  0  0  0  0  0
  -23.2047   -2.2382  -31.4056 C   0  0  0  0  0  0  0  0  0  0  0  0
  -23.2021    6.6379  -31.3928 C   0  0  0  0  0  0  0  0  0  0  0  0
  -22.4693    1.8657  -33.0758 C   0  0  0  0  0  0  0  0  0  0  0  0
  -22.6825    4.0742  -28.8424 C   0  0  0  0  0  0  0  0  0  0  0  0
  -22.4657    4.7681  -27.5935 C   0  0  0  0  0  0  0  0  0  0  0  0
  -22.3590   -3.2523  -30.6791 C   0  0  0  0  0  0  0  0  0  0  0  0
  -22.0493    3.2564  -32.6034 C   0  0  0  0  0  0  0  0  0  0  0  0
  -22.1898    4.3120  -30.1356 C   0  0  0  0  0  0  0  0  0  0  0  0
  -21.9604    6.0769  -30.6781 C   0  0  0  0  0  0  0  0  0  0  0  0
  -21.9453    3.1671  -31.0274 C   0  0  0  0  0  0  0  0  0  0  0  0
  -21.2974    7.0550  -29.6268 C   0  0  0  0  0  0  0  0  0  0  0  0
  -20.8519   -3.1993  -30.9474 C   0  0  0  0  0  0  0  0  0  0  0  0
  -20.2067   -4.5924  -30.7231 C   0  0  0  0  0  0  0  0  0  0  0  0
  -20.1173   -2.1672  -30.0495 C   0  0  0  0  0  0  0  0  0  0  0  0
  -19.9304    0.2636  -28.9109 C   0  0  0  0  0  0  0  0  0  0  0  0
  -19.5016   -0.7435  -29.9456 C   0  0  0  0  0  0  0  0  0  0  0  0
  -18.6366   -2.2367  -30.2572 C   0  0  0  0  0  0  0  0  0  0  0  0
  -31.2480    2.7526  -35.1794 O   0  0  0  0  0  0  0  0  0  0  0  0
  -28.2648    1.9376  -36.0505 O   0  0  0  0  0  0  0  0  0  0  0  0
  -27.6940    5.8202  -31.1961 O   0  0  0  0  0  0  0  0  0  0  0  0
  -23.4576   -0.0811  -32.2253 O   0  0  0  0  0  0  0  0  0  0  0  0
  -22.8703    2.8534  -28.5719 O   0  0  0  0  0  0  0  0  0  0  0  0
  -22.8616    7.7154  -32.2524 O   0  0  0  0  0  0  0  0  0  0  0  0
  -22.6823   -3.2000  -29.3280 O   0  0  0  0  0  0  0  0  0  0  0  0
  -18.0898   -1.1020  -29.5478 O   0  0  0  0  0  0  0  0  0  0  0  0
  -32.2892    4.4250  -33.3234 N   0  0  0  0  0  0  0  0  0  0  0  0
  -30.7570    6.0367  -26.1258 N   0  0  0  0  0  0  0  0  0  0  0  0
  1 54  1  0
  2  4  1  0
  2 55  1  0
  3 55  1  0
  5  7  1  0
  5  8  1  0
  5 54  1  0
  6 12  2  3
  6 55  1  0
  7 10  1  0
  7 46  1  0
  8 11  1  0
  9 55  1  0
 10 14  1  0
 11 16  1  0
 12 15  1  0
 13 17  1  0
 14 17  1  0
 14 47  1  0
 15 19  1  0
 16 18  1  0
 16 48  1  0
 17 20  1  0
 19 21  1  0
 20 22  1  0
 21 24  1  0
 21 48  1  0
 22 25  1  0
 23 25  1  0
 24 26  1  0
 25 28  1  0
 26 30  1  0
 27 29  1  0
 27 49  1  0
 28 31  1  0
 28 49  1  0
 29 34  1  0
 30 37  1  0
 30 51  1  0
 31 35  1  0
 32 33  1  0
 32 36  1  0
 32 50  2  0
 34 40  1  0
 34 52  1  0
 35 38  1  0
 36 38  1  0
 37 39  1  0
 40 41  1  0
 40 42  1  0
 42 44  1  0
 42 45  1  0
 43 44  1  0
 44 53  1  0
 45 53  1  0
M  END
$$$$

     RDKit          3D

 50 55  0  0  0  0  0  0  0  0999 V2000
  -31.0480    1.3632  -33.7211 C   0  0  0  0  0  0  0  0  0  0  0  0
  -29.7875    0.5508  -34.0883 C   0  0  0  0  0  0  0  0  0  0  0  0
  -29.5146   -0.5011  -33.0024 C   0  0  0  0  0  0  0  0  0  0  0  0
  -28.6723   -1.6445  -33.4439 C   0  0  0  0  0  0  0  0  0  0  0  0
  -28.5865    1.4894  -34.2503 C   0  0  0  0  0  0  0  0  0  0  0  0
  -28.0650    4.7743  -32.0092 C   0  0  0  0  0  0  0  0  0  0  0  0
  -28.1003    5.7126  -30.8310 C   0  0  0  0  0  0  0  0  0  0  0  0
  -26.9698    2.9164  -33.1397 C   0  0  0  0  0  0  0  0  0  0  0  0
  -26.5620    7.4757  -30.0453 C   0  0  0  0  0  0  0  0  0  0  0  0
  -26.1595    8.3489  -32.2549 C   0  0  0  0  0  0  0  0  0  0  0  0
  -25.7127    0.8695  -32.2601 C   0  0  0  0  0  0  0  0  0  0  0  0
  -25.7569    3.9208  -31.3502 C   0  0  0  0  0  0  0  0  0  0  0  0
  -25.8541    8.9610  -33.6116 C   0  0  0  0  0  0  0  0  0  0  0  0
  -25.7032    2.0190  -33.2832 C   0  0  0  0  0  0  0  0  0  0  0  0
  -24.3693    0.1701  -32.3044 C   0  0  0  0  0  0  0  0  0  0  0  0
  -24.0553   -0.5927  -31.0731 C   0  0  0  0  0  0  0  0  0  0  0  0
  -23.8007    3.4332  -34.1475 C   0  0  0  0  0  0  0  0  0  0  0  0
  -22.7624   -2.6866  -30.6786 C   0  0  0  0  0  0  0  0  0  0  0  0
  -22.7664   -1.2965  -30.8806 C   0  0  0  0  0  0  0  0  0  0  0  0
  -22.3471    3.9356  -33.8269 C   0  0  0  0  0  0  0  0  0  0  0  0
  -21.8140    4.8247  -34.9004 C   0  0  0  0  0  0  0  0  0  0  0  0
  -21.9215    6.2347  -34.8938 C   0  0  0  0  0  0  0  0  0  0  0  0
  -21.5709   -3.3516  -30.5082 C   0  0  0  0  0  0  0  0  0  0  0  0
  -21.5353   -0.6052  -30.8626 C   0  0  0  0  0  0  0  0  0  0  0  0
  -21.3227    0.8320  -31.0443 C   0  0  0  0  0  0  0  0  0  0  0  0
  -21.4081    6.7976  -36.0999 C   0  0  0  0  0  0  0  0  0  0  0  0
  -21.3829    8.1726  -36.4527 C   0  0  0  0  0  0  0  0  0  0  0  0
  -20.8734    2.6636  -32.4193 C   0  0  0  0  0  0  0  0  0  0  0  0
  -20.9209    5.8283  -36.9434 C   0  0  0  0  0  0  0  0  0  0  0  0
  -20.7854    8.4756  -37.6886 C   0  0  0  0  0  0  0  0  0  0  0  0
  -20.4572    1.3649  -32.0369 C   0  0  0  0  0  0  0  0  0  0  0  0
  -20.3354   -2.7387  -30.5409 C   0  0  0  0  0  0  0  0  0  0  0  0
  -20.3452   -1.3639  -30.7779 C   0  0  0  0  0  0  0  0  0  0  0  0
  -20.3113    6.1570  -38.1498 C   0  0  0  0  0  0  0  0  0  0  0  0
  -20.2353    7.4861  -38.5172 C   0  0  0  0  0  0  0  0  0  0  0  0
  -19.4282    0.8658  -31.1975 C   0  0  0  0  0  0  0  0  0  0  0  0
  -28.2212    1.7678  -35.3585 O   0  0  0  0  0  0  0  0  0  0  0  0
  -24.3887    3.8816  -35.1086 O   0  0  0  0  0  0  0  0  0  0  0  0
  -21.0634    3.5156  -31.5439 O   0  0  0  0  0  0  0  0  0  0  0  0
  -28.2058    2.1965  -33.1015 N   0  0  0  0  0  0  0  0  0  0  0  0
  -27.2117    6.8568  -31.0434 N   0  0  0  0  0  0  0  0  0  0  0  0
  -26.9637    7.3076  -32.2608 N   0  0  0  0  0  0  0  0  0  0  0  0
  -26.9202    3.9492  -32.1769 N   0  0  0  0  0  0  0  0  0  0  0  0
  -24.4157    2.7684  -33.0950 N   0  0  0  0  0  0  0  0  0  0  0  0
  -21.4145    2.7889  -33.6508 N   0  0  0  0  0  0  0  0  0  0  0  0
  -19.2439   -0.5619  -30.9652 N   0  0  0  0  0  0  0  0  0  0  0  0
  -18.7292    1.6573  -30.3959 N   0  0  0  0  0  0  0  0  0  0  0  0
  -18.7100   -1.2550  -30.5541 N   0  0  0  0  0  0  0  0  0  0  0  0
  -25.7087    8.7991  -30.6482 S   0  0  0  0  0  0  0  0  0  0  0  0
  -21.1280    4.1817  -36.3110 S   0  0  0  0  0  0  0  0  0  0  0  0
  1  2  1  0
  2  3  1  0
  2  5  1  0
  3  4  1  0
  5 37  2  0
  5 40  1  0
  6  7  1  0
  6 43  1  0
  7 41  1  0
  8 14  1  0
  8 40  1  0
  8 43  1  0
  9 41  1  0
  9 49  1  0
 10 13  1  0
 10 42  1  0
 10 49  1  0
 11 14  1  0
 11 15  1  0
 12 43  1  0
 14 44  1  0
 15 16  1  0
 16 19  1  0
 17 20  1  0
 17 38  2  0
 17 44  1  0
 18 19  1  0
 18 23  2  0
 19 24  2  0
 20 21  1  0
 20 45  1  0
 21 22  1  0
 21 50  1  0
 22 26  1  0
 23 32  1  0
 24 25  1  0
 24 33  1  0
 25 31  1  0
 26 27  1  0
 26 29  2  0
 27 30  2  0
 28 31  1  0
 28 39  2  0
 28 45  1  0
 29 34  1  0
 29 50  1  0
 30 35  1  0
 31 36  1  0
 32 33  2  0
 33 46  1  0
 34 35  2  0
 36 46  1  0
 36 47  2  0
 41 42  1  0
 46 48  1  0
M  END
$$$$

     RDKit          3D

 48 50  0  0  0  0  0  0  0  0999 V2000
  -32.7669    1.6282  -37.8403 C   0  0  0  0  0  0  0  0  0  0  0  0
  -31.3894    2.0301  -37.2048 C   0  0  0  0  0  0  0  0  0  0  0  0
  -31.3673    3.3253  -36.4697 C   0  0  0  0  0  0  0  0  0  0  0  0
  -31.0647    0.9572  -36.2217 C   0  0  0  0  0  0  0  0  0  0  0  0
  -30.8185   -2.5739  -36.3075 C   0  0  0  0  0  0  0  0  0  0  0  0
  -30.6124   -1.1979  -35.7882 C   0  0  0  0  0  0  0  0  0  0  0  0
  -30.2139    3.1135  -33.9033 C   0  0  0  0  0  0  0  0  0  0  0  0
  -30.0441    3.5747  -35.5870 C   0  0  0  0  0  0  0  0  0  0  0  0
  -29.4689   -1.0181  -34.7276 C   0  0  0  0  0  0  0  0  0  0  0  0
  -28.9186    3.2034  -33.0623 C   0  0  0  0  0  0  0  0  0  0  0  0
  -28.5393    4.6440  -32.8238 C   0  0  0  0  0  0  0  0  0  0  0  0
  -28.0451    0.8742  -33.7559 C   0  0  0  0  0  0  0  0  0  0  0  0
  -27.8027    2.3834  -33.7011 C   0  0  0  0  0  0  0  0  0  0  0  0
  -27.6039    4.9822  -31.7303 C   0  0  0  0  0  0  0  0  0  0  0  0
  -27.3472    6.4575  -31.5439 C   0  0  0  0  0  0  0  0  0  0  0  0
  -27.1726    0.1445  -32.8321 C   0  0  0  0  0  0  0  0  0  0  0  0
  -25.9764    6.7795  -30.9457 C   0  0  0  0  0  0  0  0  0  0  0  0
  -25.9662    8.1790  -30.2543 C   0  0  0  0  0  0  0  0  0  0  0  0
  -25.6940    0.3408  -33.0784 C   0  0  0  0  0  0  0  0  0  0  0  0
  -25.6272    1.9249  -30.5315 C   0  0  0  0  0  0  0  0  0  0  0  0
  -25.3036   -0.5048  -34.3065 C   0  0  0  0  0  0  0  0  0  0  0  0
  -24.8927   -0.0273  -31.8111 C   0  0  0  0  0  0  0  0  0  0  0  0
  -24.9084    6.7184  -32.1077 C   0  0  0  0  0  0  0  0  0  0  0  0
  -23.4276    0.0047  -31.8691 C   0  0  0  0  0  0  0  0  0  0  0  0
  -23.2128    4.5116  -31.9552 C   0  0  0  0  0  0  0  0  0  0  0  0
  -22.8291   -0.3012  -30.5313 C   0  0  0  0  0  0  0  0  0  0  0  0
  -22.0997    1.9708  -28.2469 C   0  0  0  0  0  0  0  0  0  0  0  0
  -21.4674   -1.9389  -30.1930 C   0  0  0  0  0  0  0  0  0  0  0  0
  -21.2750   -0.4735  -30.4509 C   0  0  0  0  0  0  0  0  0  0  0  0
  -21.2136    3.8751  -30.5297 C   0  0  0  0  0  0  0  0  0  0  0  0
  -21.0465   -3.0327  -31.0019 C   0  0  0  0  0  0  0  0  0  0  0  0
  -20.8273    1.7755  -29.1431 C   0  0  0  0  0  0  0  0  0  0  0  0
  -20.9482    2.4548  -30.5079 C   0  0  0  0  0  0  0  0  0  0  0  0
  -20.4727    0.2427  -29.3095 C   0  0  0  0  0  0  0  0  0  0  0  0
  -19.6725   -3.6516  -30.6606 C   0  0  0  0  0  0  0  0  0  0  0  0
  -18.8513   -2.2384  -30.5832 C   0  0  0  0  0  0  0  0  0  0  0  0
  -18.9054    0.2206  -29.5662 C   0  0  0  0  0  0  0  0  0  0  0  0
  -18.3650   -1.1697  -29.4476 C   0  0  0  0  0  0  0  0  0  0  0  0
  -32.5684    3.5210  -35.8387 O   0  0  0  0  0  0  0  0  0  0  0  0
  -30.5506   -0.2075  -36.7752 O   0  0  0  0  0  0  0  0  0  0  0  0
  -28.9913   -2.0078  -34.2029 O   0  0  0  0  0  0  0  0  0  0  0  0
  -29.0710    0.2402  -34.4954 O   0  0  0  0  0  0  0  0  0  0  0  0
  -25.4510    0.5317  -30.6524 O   0  0  0  0  0  0  0  0  0  0  0  0
  -23.5828    3.5313  -32.8921 O   0  0  0  0  0  0  0  0  0  0  0  0
  -23.1200   -1.8246  -30.1966 O   0  0  0  0  0  0  0  0  0  0  0  0
  -21.9039    4.5218  -31.5511 O   0  0  0  0  0  0  0  0  0  0  0  0
  -20.7306   -0.4613  -28.0904 O   0  0  0  0  0  0  0  0  0  0  0  0
  -24.1815    4.7330  -31.2013 N   0  0  0  0  0  0  0  0  0  0  0  0
  1  2  1  0
  2  3  1  0
  2  4  1  0
  3  8  1  0
  3 39  1  0
  4 40  1  0
  5  6  1  0
  6  9  1  0
  6 40  1  0
  7  8  1  0
  7 10  1  0
  9 41  2  0
  9 42  1  0
 10 11  1  0
 10 13  1  0
 11 14  2  3
 12 13  1  0
 12 16  1  0
 12 42  1  0
 14 15  1  0
 15 17  1  0
 16 19  1  0
 17 18  1  0
 17 23  1  0
 19 21  1  0
 19 22  1  0
 20 43  1  0
 22 24  1  0
 22 43  1  0
 24 26  1  0
 25 44  2  0
 25 46  1  0
 25 48  1  0
 26 29  1  0
 26 45  1  0
 27 32  1  0
 28 29  1  0
 28 31  1  0
 28 45  1  0
 29 34  1  0
 30 33  1  0
 30 46  1  0
 31 35  1  0
 32 33  1  0
 32 34  1  0
 34 37  1  0
 34 47  1  0
 35 36  1  0
 36 38  1  0
 37 38  1  0
M  END
$$$$

     RDKit          3D

 62 66  0  0  0  0  0  0  0  0999 V2000
  -30.6527   -1.0300  -35.8350 C   0  0  0  0  0  0  0  0  0  0  0  0
  -30.2442   -3.2410  -36.5556 C   0  0  0  0  0  0  0  0  0  0  0  0
  -30.2798   -2.4734  -35.5133 C   0  0  0  0  0  0  0  0  0  0  0  0
  -29.9910   -0.2143  -34.7201 C   0  0  0  0  0  0  0  0  0  0  0  0
  -29.9609    4.1498  -33.4411 C   0  0  0  0  0  0  0  0  0  0  0  0
  -29.7944    5.2840  -34.3159 C   0  0  0  0  0  0  0  0  0  0  0  0
  -29.2762    8.2141  -32.9686 C   0  0  0  0  0  0  0  0  0  0  0  0
  -29.0668   -0.1285  -34.1957 C   0  0  0  0  0  0  0  0  0  0  0  0
  -29.1367    6.7720  -32.6921 C   0  0  0  0  0  0  0  0  0  0  0  0
  -28.8033    6.3743  -33.9429 C   0  0  0  0  0  0  0  0  0  0  0  0
  -28.3655    6.0590  -31.8535 C   0  0  0  0  0  0  0  0  0  0  0  0
  -27.7336    5.9807  -36.0553 C   0  0  0  0  0  0  0  0  0  0  0  0
  -27.6918    7.8451  -29.6712 C   0  0  0  0  0  0  0  0  0  0  0  0
  -27.0313    6.6860  -31.7857 C   0  0  0  0  0  0  0  0  0  0  0  0
  -26.7283    0.4762  -33.4966 C   0  0  0  0  0  0  0  0  0  0  0  0
  -26.6911    6.9500  -30.3569 C   0  0  0  0  0  0  0  0  0  0  0  0
  -26.3991    2.2280  -31.8051 C   0  0  0  0  0  0  0  0  0  0  0  0
  -26.4001    6.3552  -36.6514 C   0  0  0  0  0  0  0  0  0  0  0  0
  -26.1315    0.7950  -32.1822 C   0  0  0  0  0  0  0  0  0  0  0  0
  -26.1206    3.3792  -32.6920 C   0  0  0  0  0  0  0  0  0  0  0  0
  -25.9658    7.6513  -35.9691 C   0  0  0  0  0  0  0  0  0  0  0  0
  -25.7192    4.1656  -30.4289 C   0  0  0  0  0  0  0  0  0  0  0  0
  -25.8026    4.5511  -31.8423 C   0  0  0  0  0  0  0  0  0  0  0  0
  -25.3758    5.2312  -36.3219 C   0  0  0  0  0  0  0  0  0  0  0  0
  -25.2543    7.5517  -30.3455 C   0  0  0  0  0  0  0  0  0  0  0  0
  -25.0337   -0.9654  -31.2759 C   0  0  0  0  0  0  0  0  0  0  0  0
  -24.8320    0.1763  -31.9455 C   0  0  0  0  0  0  0  0  0  0  0  0
  -24.4617    4.5626  -37.3401 C   0  0  0  0  0  0  0  0  0  0  0  0
  -24.5094    5.6822  -35.1381 C   0  0  0  0  0  0  0  0  0  0  0  0
  -23.0047    3.7618  -35.5569 C   0  0  0  0  0  0  0  0  0  0  0  0
  -23.1898    5.0782  -34.9872 C   0  0  0  0  0  0  0  0  0  0  0  0
  -22.6801   -1.2687  -31.3949 C   0  0  0  0  0  0  0  0  0  0  0  0
  -22.4581    5.4615  -33.8503 C   0  0  0  0  0  0  0  0  0  0  0  0
  -22.2824    4.5184  -32.8508 C   0  0  0  0  0  0  0  0  0  0  0  0
  -21.4736    4.8231  -31.6514 C   0  0  0  0  0  0  0  0  0  0  0  0
  -21.4201   -3.3311  -30.8451 C   0  0  0  0  0  0  0  0  0  0  0  0
  -21.3676   -1.9609  -31.0839 C   0  0  0  0  0  0  0  0  0  0  0  0
  -20.4847    3.7265  -31.5573 C   0  0  0  0  0  0  0  0  0  0  0  0
  -20.2465   -4.0557  -30.4533 C   0  0  0  0  0  0  0  0  0  0  0  0
  -20.1352   -1.2775  -31.0365 C   0  0  0  0  0  0  0  0  0  0  0  0
  -20.1362    0.2162  -31.2874 C   0  0  0  0  0  0  0  0  0  0  0  0
  -19.9904    3.2431  -30.2934 C   0  0  0  0  0  0  0  0  0  0  0  0
  -18.9763   -2.0283  -30.5252 C   0  0  0  0  0  0  0  0  0  0  0  0
  -18.9462    1.1030  -31.4711 C   0  0  0  0  0  0  0  0  0  0  0  0
  -18.9527    2.1076  -30.3104 C   0  0  0  0  0  0  0  0  0  0  0  0
  -29.3850    7.6282  -34.4501 O   0  0  0  0  0  0  0  0  0  0  0  0
  -27.6055    6.1071  -34.5809 O   0  0  0  0  0  0  0  0  0  0  0  0
  -26.4864    6.5656  -38.0488 O   0  0  0  0  0  0  0  0  0  0  0  0
  -26.2828   -1.2908  -30.9649 O   0  0  0  0  0  0  0  0  0  0  0  0
  -26.0486    5.7318  -32.2807 O   0  0  0  0  0  0  0  0  0  0  0  0
  -25.6791    2.6013  -30.6342 O   0  0  0  0  0  0  0  0  0  0  0  0
  -24.7439    4.6368  -29.6728 O   0  0  0  0  0  0  0  0  0  0  0  0
  -24.1707   -1.7952  -30.7718 O   0  0  0  0  0  0  0  0  0  0  0  0
  -22.2410    5.0122  -30.5763 O   0  0  0  0  0  0  0  0  0  0  0  0
  -21.0996    0.7062  -32.0677 O   0  0  0  0  0  0  0  0  0  0  0  0
  -20.3062   -5.7461  -30.3079 O   0  0  0  0  0  0  0  0  0  0  0  0
  -19.7194    3.5420  -32.6104 O   0  0  0  0  0  0  0  0  0  0  0  0
  -19.0312    1.3282  -29.1684 O   0  0  0  0  0  0  0  0  0  0  0  0
  -28.0004    0.6447  -33.6477 N   0  0  0  0  0  0  0  0  0  0  0  0
  -23.7983    3.4314  -36.6936 N   0  0  0  0  0  0  0  0  0  0  0  0
  -19.0917   -3.4061  -30.3095 N   0  0  0  0  0  0  0  0  0  0  0  0
  -22.7326    0.2298  -31.8359 S   0  0  0  0  0  0  0  0  0  0  0  0
  1  3  1  0
  1  4  1  0
  2  3  1  0
  4  8  1  0
  5  6  1  0
  6 10  1  0
  7  9  1  0
  7 46  1  0
  8 59  1  0
  9 10  1  0
  9 11  1  0
 10 46  1  0
 10 47  1  0
 11 14  1  0
 12 18  1  0
 12 47  1  0
 13 16  1  0
 14 16  1  0
 14 50  1  0
 15 19  1  0
 15 59  1  0
 16 25  1  0
 17 19  1  0
 17 20  1  0
 17 51  1  0
 18 21  1  0
 18 24  1  0
 18 48  1  0
 19 27  1  0
 20 23  1  0
 22 23  1  0
 22 51  1  0
 22 52  1  0
 23 50  1  0
 24 28  1  0
 24 29  1  0
 26 27  1  0
 26 49  2  0
 26 53  1  0
 28 60  1  0
 29 31  1  0
 30 31  1  0
 30 60  2  0
 31 33  1  0
 32 37  1  0
 32 62  1  0
 33 34  2  3
 34 35  1  0
 35 38  1  0
 35 54  1  0
 36 37  2  0
 36 39  1  0
 37 40  1  0
 38 42  1  0
 38 57  1  0
 39 56  2  0
 39 61  1  0
 40 41  1  0
 40 43  1  0
 41 44  1  0
 41 55  1  0
 42 45  1  0
 43 61  2  0
 44 45  1  0
 45 58  1  0
 55 62  1  0
M  END
$$$$

     RDKit          3D

 43 48  0  0  0  0  0  0  0  0999 V2000
  -28.9224   -0.6259  -32.8769 C   0  0  0  0  0  0  0  0  0  0  0  0
  -28.6405    0.3963  -33.8070 C   0  0  0  0  0  0  0  0  0  0  0  0
  -27.8564   -1.2894  -32.2055 C   0  0  0  0  0  0  0  0  0  0  0  0
  -27.3032    0.7994  -34.0564 C   0  0  0  0  0  0  0  0  0  0  0  0
  -26.4958   -0.9037  -32.4342 C   0  0  0  0  0  0  0  0  0  0  0  0
  -26.2313    0.1860  -33.3819 C   0  0  0  0  0  0  0  0  0  0  0  0
  -25.1925    7.4400  -31.8759 C   0  0  0  0  0  0  0  0  0  0  0  0
  -24.9530    7.5480  -30.5322 C   0  0  0  0  0  0  0  0  0  0  0  0
  -24.7778    0.5543  -33.5823 C   0  0  0  0  0  0  0  0  0  0  0  0
  -24.7571    4.1165  -35.8338 C   0  0  0  0  0  0  0  0  0  0  0  0
  -24.4655    6.5916  -32.7262 C   0  0  0  0  0  0  0  0  0  0  0  0
  -24.1680    1.1842  -32.4030 C   0  0  0  0  0  0  0  0  0  0  0  0
  -24.1401    4.0264  -34.4499 C   0  0  0  0  0  0  0  0  0  0  0  0
  -23.9457    6.9368  -29.9569 C   0  0  0  0  0  0  0  0  0  0  0  0
  -23.2200   -0.7681  -31.3272 C   0  0  0  0  0  0  0  0  0  0  0  0
  -23.3834    5.8193  -32.1503 C   0  0  0  0  0  0  0  0  0  0  0  0
  -23.0947    6.0551  -30.7355 C   0  0  0  0  0  0  0  0  0  0  0  0
  -22.5524    4.9107  -32.8963 C   0  0  0  0  0  0  0  0  0  0  0  0
  -21.9706    4.9645  -35.3717 C   0  0  0  0  0  0  0  0  0  0  0  0
  -21.9611    5.3990  -30.1163 C   0  0  0  0  0  0  0  0  0  0  0  0
  -21.9755    6.3160  -35.7123 C   0  0  0  0  0  0  0  0  0  0  0  0
  -21.7886   -2.8337  -31.1027 C   0  0  0  0  0  0  0  0  0  0  0  0
  -21.8853   -1.4010  -31.1651 C   0  0  0  0  0  0  0  0  0  0  0  0
  -21.5129    4.2127  -32.2311 C   0  0  0  0  0  0  0  0  0  0  0  0
  -21.2501    4.0538  -36.2447 C   0  0  0  0  0  0  0  0  0  0  0  0
  -21.2733    6.8397  -36.8263 C   0  0  0  0  0  0  0  0  0  0  0  0
  -21.1991    4.4740  -30.8686 C   0  0  0  0  0  0  0  0  0  0  0  0
  -20.7436   -0.6001  -31.0404 C   0  0  0  0  0  0  0  0  0  0  0  0
  -20.5132   -3.3634  -30.8057 C   0  0  0  0  0  0  0  0  0  0  0  0
  -20.5375    4.5994  -37.3700 C   0  0  0  0  0  0  0  0  0  0  0  0
  -20.5764    5.9696  -37.6434 C   0  0  0  0  0  0  0  0  0  0  0  0
  -20.2633   -4.8519  -30.6524 C   0  0  0  0  0  0  0  0  0  0  0  0
  -19.4878   -1.1241  -30.7323 C   0  0  0  0  0  0  0  0  0  0  0  0
  -19.3369   -2.5553  -30.6330 C   0  0  0  0  0  0  0  0  0  0  0  0
  -24.2351   -1.2171  -30.7610 O   0  0  0  0  0  0  0  0  0  0  0  0
  -19.0946   -5.3081  -31.0794 O   0  0  0  0  0  0  0  0  0  0  0  0
  -24.6090    1.7299  -34.4021 N   0  0  0  0  0  0  0  0  0  0  0  0
  -24.3882    2.8381  -33.6764 N   0  0  0  0  0  0  0  0  0  0  0  0
  -24.1473    2.4967  -32.4468 N   0  0  0  0  0  0  0  0  0  0  0  0
  -23.1682    0.5059  -31.7828 N   0  0  0  0  0  0  0  0  0  0  0  0
  -22.7996    4.5862  -34.2650 N   0  0  0  0  0  0  0  0  0  0  0  0
  -29.6437    0.9769  -34.4597 F   0  0  0  0  0  0  0  0  0  0  0  0
  -28.1632   -2.2756  -31.3257 F   0  0  0  0  0  0  0  0  0  0  0  0
  1  2  1  0
  1  3  1  0
  2  4  2  0
  2 42  1  0
  3  5  2  0
  3 43  1  0
  4  6  1  0
  5  6  1  0
  6  9  1  0
  7  8  2  0
  7 11  1  0
  8 14  1  0
  9 12  1  0
  9 37  1  0
 10 13  1  0
 11 16  2  0
 12 39  2  0
 12 40  1  0
 13 38  1  0
 13 41  1  0
 14 17  2  0
 15 23  1  0
 15 35  2  0
 15 40  1  0
 16 17  1  0
 16 18  1  0
 17 20  1  0
 18 24  2  0
 18 41  1  0
 19 21  2  0
 19 25  1  0
 19 41  1  0
 20 27  2  0
 21 26  1  0
 22 23  2  0
 22 29  1  0
 23 28  1  0
 24 27  1  0
 25 30  2  0
 26 31  2  0
 28 33  2  0
 29 32  1  0
 29 34  2  0
 30 31  1  0
 32 36  1  0
 33 34  1  0
 37 38  1  0
 38 39  1  0
M  END
$$$$

     RDKit          3D

 42 48  0  0  0  0  0  0  0  0999 V2000
  -30.5942    1.1085  -34.9176 C   0  0  0  0  0  0  0  0  0  0  0  0
  -30.4379    0.1877  -33.8522 C   0  0  0  0  0  0  0  0  0  0  0  0
  -30.1612    4.3798  -39.4900 C   0  0  0  0  0  0  0  0  0  0  0  0
  -29.7659    2.9476  -37.2171 C   0  0  0  0  0  0  0  0  0  0  0  0
  -29.3248    3.7152  -38.2890 C   0  0  0  0  0  0  0  0  0  0  0  0
  -29.0283    0.1429  -33.5423 C   0  0  0  0  0  0  0  0  0  0  0  0
  -28.9238    2.5181  -36.2554 C   0  0  0  0  0  0  0  0  0  0  0  0
  -28.3621    1.0373  -34.4343 C   0  0  0  0  0  0  0  0  0  0  0  0
  -28.0725    4.1857  -38.3334 C   0  0  0  0  0  0  0  0  0  0  0  0
  -27.5622    2.9184  -36.3204 C   0  0  0  0  0  0  0  0  0  0  0  0
  -27.1839    3.7527  -37.3570 C   0  0  0  0  0  0  0  0  0  0  0  0
  -26.6215    2.3799  -35.4097 C   0  0  0  0  0  0  0  0  0  0  0  0
  -25.9278    0.6760  -33.8774 C   0  0  0  0  0  0  0  0  0  0  0  0
  -25.4684    1.0968  -32.5234 C   0  0  0  0  0  0  0  0  0  0  0  0
  -24.2290    0.4515  -31.9788 C   0  0  0  0  0  0  0  0  0  0  0  0
  -24.1228   -0.9146  -31.8539 C   0  0  0  0  0  0  0  0  0  0  0  0
  -22.7960   -1.2827  -31.5014 C   0  0  0  0  0  0  0  0  0  0  0  0
  -22.7844    4.7278  -30.9611 C   0  0  0  0  0  0  0  0  0  0  0  0
  -22.6956    3.4495  -31.3762 C   0  0  0  0  0  0  0  0  0  0  0  0
  -22.6143    5.0415  -29.6175 C   0  0  0  0  0  0  0  0  0  0  0  0
  -22.3804   -2.5824  -31.2223 C   0  0  0  0  0  0  0  0  0  0  0  0
  -22.3612    2.4106  -30.4859 C   0  0  0  0  0  0  0  0  0  0  0  0
  -22.2303    4.0845  -28.6954 C   0  0  0  0  0  0  0  0  0  0  0  0
  -22.0640    2.7133  -29.1238 C   0  0  0  0  0  0  0  0  0  0  0  0
  -22.0291    4.4284  -27.3385 C   0  0  0  0  0  0  0  0  0  0  0  0
  -21.9152   -0.2108  -31.3809 C   0  0  0  0  0  0  0  0  0  0  0  0
  -21.6051    1.8195  -28.1036 C   0  0  0  0  0  0  0  0  0  0  0  0
  -21.6527    3.5227  -26.4137 C   0  0  0  0  0  0  0  0  0  0  0  0
  -21.3159    0.4607  -28.0825 C   0  0  0  0  0  0  0  0  0  0  0  0
  -21.4013    2.2264  -26.7829 C   0  0  0  0  0  0  0  0  0  0  0  0
  -21.0421   -2.7990  -30.8611 C   0  0  0  0  0  0  0  0  0  0  0  0
  -21.0003    1.1159  -25.9772 C   0  0  0  0  0  0  0  0  0  0  0  0
  -20.5552   -0.4092  -31.0953 C   0  0  0  0  0  0  0  0  0  0  0  0
  -20.1303   -1.7280  -30.8256 C   0  0  0  0  0  0  0  0  0  0  0  0
  -18.6976   -2.0428  -30.3757 C   0  0  0  0  0  0  0  0  0  0  0  0
  -31.6037    1.5082  -35.5460 O   0  0  0  0  0  0  0  0  0  0  0  0
  -30.2370    3.8735  -39.2284 O   0  0  0  0  0  0  0  0  0  0  0  0
  -25.9627    1.9586  -31.8553 O   0  0  0  0  0  0  0  0  0  0  0  0
  -29.2925    1.6132  -35.2482 N   0  0  0  0  0  0  0  0  0  0  0  0
  -26.9905    1.3852  -34.5722 N   0  0  0  0  0  0  0  0  0  0  0  0
  -21.0206    0.0804  -26.8356 N   0  0  0  0  0  0  0  0  0  0  0  0
  -22.7248    1.2019  -31.5056 S   0  0  0  0  0  0  0  0  0  0  0  0
  1  2  1  0
  1 36  2  0
  1 39  1  0
  2  6  1  0
  3 37  1  0
  4  5  1  0
  4  7  2  0
  5  9  2  0
  5 37  1  0
  6  8  1  0
  7 10  1  0
  7 39  1  0
  8 39  1  0
  8 40  1  0
  9 11  1  0
 10 11  1  0
 10 12  2  0
 12 40  1  0
 13 14  1  0
 13 40  1  0
 14 15  1  0
 14 38  2  0
 15 16  1  0
 16 17  1  0
 17 21  2  0
 17 26  1  0
 18 19  2  0
 18 20  1  0
 19 22  1  0
 20 23  2  0
 21 31  1  0
 22 24  1  0
 22 42  1  0
 23 24  1  0
 23 25  1  0
 24 27  1  0
 25 28  2  0
 26 33  2  0
 26 42  1  0
 27 29  1  0
 27 30  2  0
 28 30  1  0
 29 41  1  0
 30 32  1  0
 31 34  2  0
 32 41  1  0
 33 34  1  0
 34 35  1  0
M  END
$$$$

     RDKit          3D

 42 45  0  0  0  0  0  0  0  0999 V2000
  -33.3142    2.6167  -34.2418 C   0  0  0  0  0  0  0  0  0  0  0  0
  -32.0822    1.4990  -34.9009 C   0  0  0  0  0  0  0  0  0  0  0  0
  -31.5499    0.2179  -34.4459 C   0  0  0  0  0  0  0  0  0  0  0  0
  -31.5012    1.5856  -36.3375 C   0  0  0  0  0  0  0  0  0  0  0  0
  -30.6892   -0.3762  -35.3706 C   0  0  0  0  0  0  0  0  0  0  0  0
  -30.5702    0.4555  -36.5556 C   0  0  0  0  0  0  0  0  0  0  0  0
  -29.7321   -1.4040  -34.8097 C   0  0  0  0  0  0  0  0  0  0  0  0
  -28.7231   -1.2902  -33.5205 C   0  0  0  0  0  0  0  0  0  0  0  0
  -28.1352    4.2162  -38.4163 C   0  0  0  0  0  0  0  0  0  0  0  0
  -27.9382    6.0874  -36.5480 C   0  0  0  0  0  0  0  0  0  0  0  0
  -27.6682    4.6732  -37.0238 C   0  0  0  0  0  0  0  0  0  0  0  0
  -26.7200    1.7716  -34.0748 C   0  0  0  0  0  0  0  0  0  0  0  0
  -26.6273   -0.3640  -32.4000 C   0  0  0  0  0  0  0  0  0  0  0  0
  -26.0158    3.0257  -35.9755 C   0  0  0  0  0  0  0  0  0  0  0  0
  -26.2048    4.2639  -36.7903 C   0  0  0  0  0  0  0  0  0  0  0  0
  -25.6003    0.5450  -32.4208 C   0  0  0  0  0  0  0  0  0  0  0  0
  -25.6372    1.6824  -33.2122 C   0  0  0  0  0  0  0  0  0  0  0  0
  -25.3735    3.6987  -31.9889 C   0  0  0  0  0  0  0  0  0  0  0  0
  -25.3120    4.6143  -37.7738 C   0  0  0  0  0  0  0  0  0  0  0  0
  -24.7849    2.9070  -33.0504 C   0  0  0  0  0  0  0  0  0  0  0  0
  -24.2353   -1.1631  -31.3754 C   0  0  0  0  0  0  0  0  0  0  0  0
  -22.9135   -1.4549  -30.7814 C   0  0  0  0  0  0  0  0  0  0  0  0
  -22.3043   -2.6859  -30.9113 C   0  0  0  0  0  0  0  0  0  0  0  0
  -22.1780   -0.3929  -30.2130 C   0  0  0  0  0  0  0  0  0  0  0  0
  -21.7439    3.6894  -30.6446 C   0  0  0  0  0  0  0  0  0  0  0  0
  -21.8607    4.4936  -31.7799 C   0  0  0  0  0  0  0  0  0  0  0  0
  -21.0040   -2.8941  -30.5011 C   0  0  0  0  0  0  0  0  0  0  0  0
  -21.2076    4.1232  -32.9657 C   0  0  0  0  0  0  0  0  0  0  0  0
  -20.8360   -0.6031  -29.8711 C   0  0  0  0  0  0  0  0  0  0  0  0
  -20.9194    2.5385  -30.6734 C   0  0  0  0  0  0  0  0  0  0  0  0
  -20.2056   -1.8612  -29.9664 C   0  0  0  0  0  0  0  0  0  0  0  0
  -20.2249    2.2093  -31.8620 C   0  0  0  0  0  0  0  0  0  0  0  0
  -20.3855    3.0006  -33.0033 C   0  0  0  0  0  0  0  0  0  0  0  0
  -20.0052    0.6118  -29.4649 C   0  0  0  0  0  0  0  0  0  0  0  0
  -26.1394    4.5856  -32.1687 O   0  0  0  0  0  0  0  0  0  0  0  0
  -25.0968    2.3078  -36.1544 O   0  0  0  0  0  0  0  0  0  0  0  0
  -20.8450    1.7832  -29.5168 O   0  0  0  0  0  0  0  0  0  0  0  0
  -27.6456   -0.2363  -33.3654 N   0  0  0  0  0  0  0  0  0  0  0  0
  -27.5963    0.7541  -34.1464 N   0  0  0  0  0  0  0  0  0  0  0  0
  -26.9380    2.8817  -34.9331 N   0  0  0  0  0  0  0  0  0  0  0  0
  -24.5604    0.0913  -31.6972 N   0  0  0  0  0  0  0  0  0  0  0  0
  -20.3427   -4.4699  -30.6675 S   0  0  0  0  0  0  0  0  0  0  0  0
  1  2  1  0
  2  3  1  0
  2  4  1  0
  3  5  1  0
  4  6  1  0
  5  6  1  0
  5  7  1  0
  7  8  1  0
  8 38  1  0
  9 11  1  0
 10 11  1  0
 11 15  1  0
 12 17  1  0
 12 39  2  0
 12 40  1  0
 13 16  2  0
 13 38  1  0
 14 15  1  0
 14 36  2  0
 14 40  1  0
 15 19  2  0
 16 17  1  0
 16 41  1  0
 17 20  1  0
 18 20  1  0
 18 35  2  0
 21 22  1  0
 21 41  2  3
 22 23  2  0
 22 24  1  0
 23 27  1  0
 24 29  1  0
 25 26  2  0
 25 30  1  0
 26 28  1  0
 27 31  1  0
 27 42  2  0
 28 33  2  0
 29 31  2  0
 29 34  1  0
 30 32  2  0
 30 37  1  0
 32 33  1  0
 34 37  1  0
 38 39  1  0
M  END
$$$$

     RDKit          3D

 37 41  0  0  0  0  0  0  0  0999 V2000
  -31.7199   -0.2499  -34.7364 C   0  0  0  0  0  0  0  0  0  0  0  0
  -31.5445    0.1140  -33.4203 C   0  0  0  0  0  0  0  0  0  0  0  0
  -30.6221   -0.7238  -35.4410 C   0  0  0  0  0  0  0  0  0  0  0  0
  -30.3006   -0.0421  -32.8493 C   0  0  0  0  0  0  0  0  0  0  0  0
  -29.4011   -0.8456  -34.8415 C   0  0  0  0  0  0  0  0  0  0  0  0
  -29.2361   -0.4737  -33.5363 C   0  0  0  0  0  0  0  0  0  0  0  0
  -27.8328   -0.5340  -32.9774 C   0  0  0  0  0  0  0  0  0  0  0  0
  -27.3297    3.0880  -32.0891 C   0  0  0  0  0  0  0  0  0  0  0  0
  -26.0542    1.1313  -32.4346 C   0  0  0  0  0  0  0  0  0  0  0  0
  -25.9540    2.5829  -32.3739 C   0  0  0  0  0  0  0  0  0  0  0  0
  -25.0546    3.1688  -31.3833 C   0  0  0  0  0  0  0  0  0  0  0  0
  -24.1007   -0.4228  -32.2905 C   0  0  0  0  0  0  0  0  0  0  0  0
  -23.0919   -2.2844  -30.8319 C   0  0  0  0  0  0  0  0  0  0  0  0
  -23.0226   -1.0290  -31.4166 C   0  0  0  0  0  0  0  0  0  0  0  0
  -22.7763    3.9263  -34.3774 C   0  0  0  0  0  0  0  0  0  0  0  0
  -22.3024    6.9760  -33.4887 C   0  0  0  0  0  0  0  0  0  0  0  0
  -22.0179    2.8869  -33.6200 C   0  0  0  0  0  0  0  0  0  0  0  0
  -21.9567   -2.8279  -30.2841 C   0  0  0  0  0  0  0  0  0  0  0  0
  -21.8117   -0.3436  -31.4023 C   0  0  0  0  0  0  0  0  0  0  0  0
  -21.9314    5.0053  -34.9309 C   0  0  0  0  0  0  0  0  0  0  0  0
  -21.6445    0.9076  -32.0229 C   0  0  0  0  0  0  0  0  0  0  0  0
  -21.5751    4.7119  -36.3036 C   0  0  0  0  0  0  0  0  0  0  0  0
  -21.3051    6.0985  -36.9029 C   0  0  0  0  0  0  0  0  0  0  0  0
  -21.3998    7.0913  -35.8219 C   0  0  0  0  0  0  0  0  0  0  0  0
  -20.7069   -0.9519  -30.7622 C   0  0  0  0  0  0  0  0  0  0  0  0
  -20.5169    1.5983  -31.8255 C   0  0  0  0  0  0  0  0  0  0  0  0
  -20.6247    3.1259  -33.3568 C   0  0  0  0  0  0  0  0  0  0  0  0
  -20.3289    2.9939  -32.1282 C   0  0  0  0  0  0  0  0  0  0  0  0
  -19.5184   -0.1741  -30.6404 C   0  0  0  0  0  0  0  0  0  0  0  0
  -19.4466    1.0578  -31.1876 C   0  0  0  0  0  0  0  0  0  0  0  0
  -27.2388   -1.4881  -32.7961 O   0  0  0  0  0  0  0  0  0  0  0  0
  -23.9375    3.7268  -34.6548 O   0  0  0  0  0  0  0  0  0  0  0  0
  -27.2559    0.7673  -32.9157 N   0  0  0  0  0  0  0  0  0  0  0  0
  -25.2175    0.2629  -31.7801 N   0  0  0  0  0  0  0  0  0  0  0  0
  -22.0674    6.4081  -34.7658 N   0  0  0  0  0  0  0  0  0  0  0  0
  -20.7457   -2.1843  -30.2749 N   0  0  0  0  0  0  0  0  0  0  0  0
  -22.8593    1.5544  -32.9529 S   0  0  0  0  0  0  0  0  0  0  0  0
  1  2  2  0
  1  3  1  0
  2  4  1  0
  3  5  2  0
  4  6  2  0
  5  6  1  0
  6  7  1  0
  7 31  2  0
  7 33  1  0
  8 10  1  0
  9 10  1  0
  9 33  2  3
  9 34  1  0
 10 11  1  0
 12 14  1  0
 12 34  2  3
 13 14  2  0
 13 18  1  0
 14 19  1  0
 15 17  1  0
 15 20  1  0
 15 32  2  0
 16 35  1  0
 17 27  1  0
 17 37  1  0
 18 36  2  0
 19 21  2  0
 19 25  1  0
 20 22  1  0
 20 35  1  0
 21 26  1  0
 21 37  1  0
 22 23  1  0
 23 24  1  0
 24 35  1  0
 25 29  2  0
 25 36  1  0
 26 28  1  0
 26 30  2  0
 27 28  1  0
 29 30  1  0
M  END
$$$$

     RDKit          3D

 49 52  0  0  0  0  0  0  0  0999 V2000
  -31.9514    0.8387  -36.3104 C   0  0  0  0  0  0  0  0  0  0  0  0
  -30.9230   -2.7952  -37.2887 C   0  0  0  0  0  0  0  0  0  0  0  0
  -30.8030   -0.1123  -36.6229 C   0  0  0  0  0  0  0  0  0  0  0  0
  -30.6250   -1.0907  -35.4469 C   0  0  0  0  0  0  0  0  0  0  0  0
  -29.2496   -0.8782  -34.7081 C   0  0  0  0  0  0  0  0  0  0  0  0
  -28.9299    2.9837  -33.0928 C   0  0  0  0  0  0  0  0  0  0  0  0
  -27.7648    1.0266  -34.1606 C   0  0  0  0  0  0  0  0  0  0  0  0
  -27.7382    2.5700  -33.9590 C   0  0  0  0  0  0  0  0  0  0  0  0
  -27.3912    3.4597  -35.1417 C   0  0  0  0  0  0  0  0  0  0  0  0
  -27.1499    0.4182  -32.8775 C   0  0  0  0  0  0  0  0  0  0  0  0
  -27.0630    4.8826  -34.7656 C   0  0  0  0  0  0  0  0  0  0  0  0
  -26.5721    8.6110  -31.3303 C   0  0  0  0  0  0  0  0  0  0  0  0
  -26.2187    5.8221  -35.6001 C   0  0  0  0  0  0  0  0  0  0  0  0
  -26.2668    7.6864  -33.7193 C   0  0  0  0  0  0  0  0  0  0  0  0
  -26.0074    3.7981  -31.0206 C   0  0  0  0  0  0  0  0  0  0  0  0
  -25.6950    0.2002  -32.8708 C   0  0  0  0  0  0  0  0  0  0  0  0
  -25.5967    7.9643  -32.3622 C   0  0  0  0  0  0  0  0  0  0  0  0
  -25.3677    6.6956  -34.6004 C   0  0  0  0  0  0  0  0  0  0  0  0
  -25.1428   -0.5970  -31.6750 C   0  0  0  0  0  0  0  0  0  0  0  0
  -25.1762   -0.3380  -34.2183 C   0  0  0  0  0  0  0  0  0  0  0  0
  -24.6607    3.5481  -30.6416 C   0  0  0  0  0  0  0  0  0  0  0  0
  -24.2885    7.5441  -35.2606 C   0  0  0  0  0  0  0  0  0  0  0  0
  -23.8507    6.5750  -31.5037 C   0  0  0  0  0  0  0  0  0  0  0  0
  -23.6380   -0.9168  -31.5721 C   0  0  0  0  0  0  0  0  0  0  0  0
  -23.5718    3.9448  -31.6048 C   0  0  0  0  0  0  0  0  0  0  0  0
  -23.1224    5.3543  -31.3076 C   0  0  0  0  0  0  0  0  0  0  0  0
  -22.7443    0.3258  -31.2596 C   0  0  0  0  0  0  0  0  0  0  0  0
  -22.6211    2.7704  -31.5646 C   0  0  0  0  0  0  0  0  0  0  0  0
  -22.3341   -2.8322  -30.4096 C   0  0  0  0  0  0  0  0  0  0  0  0
  -22.0160    5.7367  -30.4489 C   0  0  0  0  0  0  0  0  0  0  0  0
  -22.0439    7.1179  -30.3891 C   0  0  0  0  0  0  0  0  0  0  0  0
  -21.2982    0.0749  -31.5800 C   0  0  0  0  0  0  0  0  0  0  0  0
  -20.9594   -2.3308  -30.9830 C   0  0  0  0  0  0  0  0  0  0  0  0
  -21.1424    8.0378  -29.6761 C   0  0  0  0  0  0  0  0  0  0  0  0
  -20.8617   -0.7205  -29.1727 C   0  0  0  0  0  0  0  0  0  0  0  0
  -20.6611   -0.8819  -30.6470 C   0  0  0  0  0  0  0  0  0  0  0  0
  -19.7808   -3.1686  -30.4731 C   0  0  0  0  0  0  0  0  0  0  0  0
  -19.3324   -0.6927  -28.8464 C   0  0  0  0  0  0  0  0  0  0  0  0
  -30.8148   -2.5053  -35.8657 O   0  0  0  0  0  0  0  0  0  0  0  0
  -29.0924    0.4887  -34.2941 O   0  0  0  0  0  0  0  0  0  0  0  0
  -26.2664    8.9382  -34.3876 O   0  0  0  0  0  0  0  0  0  0  0  0
  -25.4965    0.0563  -30.4606 O   0  0  0  0  0  0  0  0  0  0  0  0
  -25.4177    5.1262  -36.5005 O   0  0  0  0  0  0  0  0  0  0  0  0
  -25.1596    6.6936  -31.8520 O   0  0  0  0  0  0  0  0  0  0  0  0
  -23.4296   -1.8832  -30.4542 O   0  0  0  0  0  0  0  0  0  0  0  0
  -23.2208    1.5449  -31.9088 O   0  0  0  0  0  0  0  0  0  0  0  0
  -23.1695    7.5961  -31.0210 O   0  0  0  0  0  0  0  0  0  0  0  0
  -21.4044    3.0101  -31.4035 O   0  0  0  0  0  0  0  0  0  0  0  0
  -19.2901   -0.6834  -30.3997 O   0  0  0  0  0  0  0  0  0  0  0  0
  1  3  1  0
  2 39  1  0
  3  4  1  0
  4  5  1  0
  4 39  1  0
  5 40  1  0
  6  8  1  0
  7  8  1  0
  7 10  1  0
  7 40  1  0
  8  9  1  0
  9 11  1  0
 10 16  1  0
 11 13  1  0
 12 17  1  0
 13 18  1  0
 13 43  1  0
 14 17  1  0
 14 18  1  0
 14 41  1  0
 15 21  1  0
 16 19  1  0
 16 20  1  0
 17 44  1  0
 18 22  1  0
 19 24  1  0
 19 42  1  0
 21 25  1  0
 23 26  1  0
 23 44  1  0
 23 47  1  0
 24 27  1  0
 24 45  1  0
 25 26  1  0
 25 28  1  0
 26 30  1  0
 27 32  1  0
 27 46  1  0
 28 46  1  0
 28 48  2  0
 29 33  1  0
 29 45  1  0
 30 31  1  0
 31 34  1  0
 31 47  1  0
 32 36  1  0
 33 36  1  0
 33 37  1  0
 35 36  1  0
 35 38  1  0
 36 49  1  0
 38 49  1  0
M  END
$$$$

     RDKit          3D

 41 43  0  0  0  0  0  0  0  0999 V2000
  -30.6495    7.5786  -28.6110 C   0  0  0  0  0  0  0  0  0  0  0  0
  -30.6301    7.8611  -29.9748 C   0  0  0  0  0  0  0  0  0  0  0  0
  -29.5503    6.9669  -28.0269 C   0  0  0  0  0  0  0  0  0  0  0  0
  -29.4981    7.4988  -30.7248 C   0  0  0  0  0  0  0  0  0  0  0  0
  -28.6334    4.7144  -32.8120 C   0  0  0  0  0  0  0  0  0  0  0  0
  -28.2242   -1.5509  -33.1215 C   0  0  0  0  0  0  0  0  0  0  0  0
  -28.2937   -0.5954  -34.1175 C   0  0  0  0  0  0  0  0  0  0  0  0
  -28.4439    6.5980  -28.7840 C   0  0  0  0  0  0  0  0  0  0  0  0
  -28.4105    6.8700  -30.1484 C   0  0  0  0  0  0  0  0  0  0  0  0
  -28.0140    4.3714  -31.6096 C   0  0  0  0  0  0  0  0  0  0  0  0
  -27.3823   -1.4271  -32.0636 C   0  0  0  0  0  0  0  0  0  0  0  0
  -27.4231    0.4430  -34.0210 C   0  0  0  0  0  0  0  0  0  0  0  0
  -27.2524    6.4610  -30.9877 C   0  0  0  0  0  0  0  0  0  0  0  0
  -26.5698   -0.3142  -31.9569 C   0  0  0  0  0  0  0  0  0  0  0  0
  -26.5825    0.6334  -32.9670 C   0  0  0  0  0  0  0  0  0  0  0  0
  -25.7874    2.4903  -34.2683 C   0  0  0  0  0  0  0  0  0  0  0  0
  -25.8549    2.7784  -31.7729 C   0  0  0  0  0  0  0  0  0  0  0  0
  -25.7912    4.5240  -31.8011 C   0  0  0  0  0  0  0  0  0  0  0  0
  -25.6919    1.8286  -32.9553 C   0  0  0  0  0  0  0  0  0  0  0  0
  -24.2280    2.5740  -36.1148 C   0  0  0  0  0  0  0  0  0  0  0  0
  -22.8400    1.9563  -35.7983 C   0  0  0  0  0  0  0  0  0  0  0  0
  -22.6970   -1.9413  -30.9580 C   0  0  0  0  0  0  0  0  0  0  0  0
  -22.4489    0.4825  -31.3367 C   0  0  0  0  0  0  0  0  0  0  0  0
  -22.1994    2.6258  -34.5221 C   0  0  0  0  0  0  0  0  0  0  0  0
  -22.1928   -3.2429  -30.7518 C   0  0  0  0  0  0  0  0  0  0  0  0
  -21.8284   -0.8809  -31.1457 C   0  0  0  0  0  0  0  0  0  0  0  0
  -21.0275    3.4655  -35.1240 C   0  0  0  0  0  0  0  0  0  0  0  0
  -20.8196   -3.4821  -30.8005 C   0  0  0  0  0  0  0  0  0  0  0  0
  -20.2543   -4.8322  -30.5530 C   0  0  0  0  0  0  0  0  0  0  0  0
  -20.4547   -1.1451  -31.1703 C   0  0  0  0  0  0  0  0  0  0  0  0
  -19.9568   -2.4265  -30.9920 C   0  0  0  0  0  0  0  0  0  0  0  0
  -31.7067    8.5790  -30.6487 O   0  0  0  0  0  0  0  0  0  0  0  0
  -25.7287    2.2650  -30.6665 O   0  0  0  0  0  0  0  0  0  0  0  0
  -25.1606    1.9780  -35.3053 O   0  0  0  0  0  0  0  0  0  0  0  0
  -22.0468    2.9551  -31.6418 O   0  0  0  0  0  0  0  0  0  0  0  0
  -21.6314    1.6207  -33.5969 O   0  0  0  0  0  0  0  0  0  0  0  0
  -20.0857    1.5081  -31.5863 O   0  0  0  0  0  0  0  0  0  0  0  0
  -26.9632    5.0890  -31.1315 N   0  0  0  0  0  0  0  0  0  0  0  0
  -25.8853    3.8511  -34.3427 N   0  0  0  0  0  0  0  0  0  0  0  0
  -21.4335    1.7199  -32.0323 S   0  0  0  0  0  0  0  0  0  0  0  0
  -20.3778   -5.9884  -29.5234 F   0  0  0  0  0  0  0  0  0  0  0  0
  1  2  2  0
  1  3  1  0
  2  4  1  0
  2 32  1  0
  3  8  2  0
  4  9  2  0
  5 10  1  0
  6  7  2  0
  6 11  1  0
  7 12  1  0
  8  9  1  0
  9 13  1  0
 10 38  1  0
 11 14  2  0
 12 15  2  0
 13 38  1  0
 14 15  1  0
 15 19  1  0
 16 19  1  0
 16 34  1  0
 16 39  1  0
 17 18  1  0
 17 19  1  0
 17 33  2  0
 18 38  1  0
 20 21  1  0
 20 34  1  0
 21 24  1  0
 22 25  1  0
 22 26  2  0
 23 26  1  0
 23 40  1  0
 24 27  1  0
 24 36  1  0
 25 28  1  0
 26 30  1  0
 28 29  1  0
 28 31  2  0
 29 41  1  0
 30 31  1  0
 35 40  1  0
 36 40  1  0
 37 40  1  0
M  END
$$$$

     RDKit          3D

 45 50  0  0  0  0  0  0  0  0999 V2000
  -31.0528   -1.6171  -36.5523 C   0  0  0  0  0  0  0  0  0  0  0  0
  -30.9785   -0.2164  -36.6152 C   0  0  0  0  0  0  0  0  0  0  0  0
  -30.2513   -2.1228  -35.4226 C   0  0  0  0  0  0  0  0  0  0  0  0
  -30.1521    0.1813  -35.5596 C   0  0  0  0  0  0  0  0  0  0  0  0
  -29.6418   -0.9617  -34.8565 C   0  0  0  0  0  0  0  0  0  0  0  0
  -28.6416   -1.7901  -32.6261 C   0  0  0  0  0  0  0  0  0  0  0  0
  -28.5037   -0.9833  -33.7799 C   0  0  0  0  0  0  0  0  0  0  0  0
  -27.6523   -1.8081  -31.6193 C   0  0  0  0  0  0  0  0  0  0  0  0
  -27.3430   -0.2072  -33.9127 C   0  0  0  0  0  0  0  0  0  0  0  0
  -26.5022   -1.0271  -31.7750 C   0  0  0  0  0  0  0  0  0  0  0  0
  -26.3436   -0.2214  -32.9000 C   0  0  0  0  0  0  0  0  0  0  0  0
  -25.2248    2.7485  -32.0220 C   0  0  0  0  0  0  0  0  0  0  0  0
  -25.0236    0.5908  -33.1043 C   0  0  0  0  0  0  0  0  0  0  0  0
  -24.7928    3.8461  -35.0414 C   0  0  0  0  0  0  0  0  0  0  0  0
  -24.6191    1.3750  -31.8201 C   0  0  0  0  0  0  0  0  0  0  0  0
  -23.9956    4.1661  -33.8651 C   0  0  0  0  0  0  0  0  0  0  0  0
  -24.0345    5.1347  -30.3815 C   0  0  0  0  0  0  0  0  0  0  0  0
  -23.6863    4.7589  -31.8031 C   0  0  0  0  0  0  0  0  0  0  0  0
  -22.7316   -0.8984  -31.5302 C   0  0  0  0  0  0  0  0  0  0  0  0
  -22.6008    5.3366  -32.6028 C   0  0  0  0  0  0  0  0  0  0  0  0
  -22.3079    0.4710  -31.4315 C   0  0  0  0  0  0  0  0  0  0  0  0
  -22.2490    1.9951  -35.4832 C   0  0  0  0  0  0  0  0  0  0  0  0
  -22.0464    5.1675  -35.0834 C   0  0  0  0  0  0  0  0  0  0  0  0
  -22.0026    6.4728  -35.7075 C   0  0  0  0  0  0  0  0  0  0  0  0
  -21.7748   -3.3377  -31.1903 C   0  0  0  0  0  0  0  0  0  0  0  0
  -21.7439   -1.8489  -31.2287 C   0  0  0  0  0  0  0  0  0  0  0  0
  -21.2867    4.1141  -35.6753 C   0  0  0  0  0  0  0  0  0  0  0  0
  -20.9652    0.7641  -31.2079 C   0  0  0  0  0  0  0  0  0  0  0  0
  -21.1528    6.7068  -36.8718 C   0  0  0  0  0  0  0  0  0  0  0  0
  -20.9876    8.0840  -37.4851 C   0  0  0  0  0  0  0  0  0  0  0  0
  -20.4985    4.3504  -36.8451 C   0  0  0  0  0  0  0  0  0  0  0  0
  -20.3970   -3.7617  -30.7287 C   0  0  0  0  0  0  0  0  0  0  0  0
  -20.4512   -1.4934  -30.9847 C   0  0  0  0  0  0  0  0  0  0  0  0
  -20.4287    5.6378  -37.3972 C   0  0  0  0  0  0  0  0  0  0  0  0
  -19.9708   -0.1946  -31.0447 C   0  0  0  0  0  0  0  0  0  0  0  0
  -19.5425   -2.5704  -30.6948 C   0  0  0  0  0  0  0  0  0  0  0  0
  -26.4821    2.8606  -32.0038 O   0  0  0  0  0  0  0  0  0  0  0  0
  -26.1616    3.8241  -35.0562 O   0  0  0  0  0  0  0  0  0  0  0  0
  -21.5644    9.1018  -36.9723 O   0  0  0  0  0  0  0  0  0  0  0  0
  -21.2676    2.8871  -35.1580 O   0  0  0  0  0  0  0  0  0  0  0  0
  -20.2043    8.2635  -38.4920 O   0  0  0  0  0  0  0  0  0  0  0  0
  -24.4343    3.9056  -32.5504 N   0  0  0  0  0  0  0  0  0  0  0  0
  -23.2094    1.5304  -31.5825 N   0  0  0  0  0  0  0  0  0  0  0  0
  -22.8600    4.9238  -33.9166 N   0  0  0  0  0  0  0  0  0  0  0  0
  -19.7405   -4.9123  -30.8640 F   0  0  0  0  0  0  0  0  0  0  0  0
  1  2  1  0
  1  3  1  0
  2  4  1  0
  3  5  1  0
  4  5  1  0
  5  7  1  0
  6  7  2  0
  6  8  1  0
  7  9  1  0
  8 10  2  0
  9 11  2  0
 10 11  1  0
 11 13  1  0
 12 15  1  0
 12 37  2  0
 12 42  1  0
 13 15  1  0
 14 16  1  0
 14 38  1  0
 15 43  1  0
 16 42  1  0
 16 44  1  0
 17 18  1  0
 18 20  1  0
 18 42  1  0
 19 21  1  0
 19 26  1  0
 20 44  1  0
 21 28  2  0
 21 43  1  0
 22 40  1  0
 23 24  2  0
 23 27  1  0
 23 44  1  0
 24 29  1  0
 25 26  1  0
 25 32  1  0
 26 33  2  0
 27 31  2  0
 27 40  1  0
 28 35  1  0
 29 30  1  0
 29 34  2  0
 30 39  2  0
 30 41  1  0
 31 34  1  0
 32 36  1  0
 32 45  1  0
 33 35  1  0
 33 36  1  0
M  END
$$$$

     RDKit          3D

 36 41  0  0  0  0  0  0  0  0999 V2000
  -30.1464   -0.3029  -33.0608 C   0  0  0  0  0  0  0  0  0  0  0  0
  -29.8349    5.3992  -32.3489 C   0  0  0  0  0  0  0  0  0  0  0  0
  -29.4665    6.5007  -31.6289 C   0  0  0  0  0  0  0  0  0  0  0  0
  -29.2603    0.2427  -34.5942 C   0  0  0  0  0  0  0  0  0  0  0  0
  -28.9732    4.3340  -32.4835 C   0  0  0  0  0  0  0  0  0  0  0  0
  -28.0171   -0.1776  -33.8838 C   0  0  0  0  0  0  0  0  0  0  0  0
  -28.1760    6.6076  -31.0038 C   0  0  0  0  0  0  0  0  0  0  0  0
  -27.7616    7.7793  -30.3022 C   0  0  0  0  0  0  0  0  0  0  0  0
  -27.6998    4.3370  -31.8765 C   0  0  0  0  0  0  0  0  0  0  0  0
  -27.3080    5.4597  -31.0783 C   0  0  0  0  0  0  0  0  0  0  0  0
  -27.0239    0.8973  -33.4384 C   0  0  0  0  0  0  0  0  0  0  0  0
  -27.1083    1.7152  -32.1335 C   0  0  0  0  0  0  0  0  0  0  0  0
  -26.7301    3.2234  -32.2388 C   0  0  0  0  0  0  0  0  0  0  0  0
  -26.5130    7.8233  -29.6173 C   0  0  0  0  0  0  0  0  0  0  0  0
  -25.9608    1.2093  -31.2674 C   0  0  0  0  0  0  0  0  0  0  0  0
  -26.0743    5.4901  -30.3353 C   0  0  0  0  0  0  0  0  0  0  0  0
  -25.9441    3.4559  -33.5159 C   0  0  0  0  0  0  0  0  0  0  0  0
  -25.7106    6.6748  -29.6290 C   0  0  0  0  0  0  0  0  0  0  0  0
  -25.6757    0.1918  -33.3498 C   0  0  0  0  0  0  0  0  0  0  0  0
  -23.7345    0.2333  -31.7157 C   0  0  0  0  0  0  0  0  0  0  0  0
  -23.3631   -0.9800  -31.0992 C   0  0  0  0  0  0  0  0  0  0  0  0
  -22.8830    1.3126  -31.8684 C   0  0  0  0  0  0  0  0  0  0  0  0
  -21.9554   -1.1589  -30.8414 C   0  0  0  0  0  0  0  0  0  0  0  0
  -21.5831    1.1993  -31.4891 C   0  0  0  0  0  0  0  0  0  0  0  0
  -21.4212   -2.3930  -30.4176 C   0  0  0  0  0  0  0  0  0  0  0  0
  -21.3747    3.6772  -31.5824 C   0  0  0  0  0  0  0  0  0  0  0  0
  -21.0844   -0.0649  -31.0678 C   0  0  0  0  0  0  0  0  0  0  0  0
  -20.0098   -2.4315  -30.5019 C   0  0  0  0  0  0  0  0  0  0  0  0
  -19.2641   -1.3497  -30.6758 C   0  0  0  0  0  0  0  0  0  0  0  0
  -30.2641    0.6422  -33.6999 O   0  0  0  0  0  0  0  0  0  0  0  0
  -25.9794    1.4337  -30.1165 O   0  0  0  0  0  0  0  0  0  0  0  0
  -25.2250   -0.5190  -34.1979 O   0  0  0  0  0  0  0  0  0  0  0  0
  -20.7932    2.3236  -31.5511 O   0  0  0  0  0  0  0  0  0  0  0  0
  -19.8427   -0.1137  -30.8409 O   0  0  0  0  0  0  0  0  0  0  0  0
  -28.7822   -0.8928  -32.7999 N   0  0  0  0  0  0  0  0  0  0  0  0
  -25.0837    0.5178  -32.1187 N   0  0  0  0  0  0  0  0  0  0  0  0
  1 30  1  0
  1 35  1  0
  2  3  2  0
  2  5  1  0
  3  7  1  0
  4  6  1  0
  4 30  1  0
  5  9  2  0
  6 11  1  0
  6 35  1  0
  7  8  2  0
  7 10  1  0
  8 14  1  0
  9 10  1  0
  9 13  1  0
 10 16  2  0
 11 12  1  0
 11 19  1  0
 12 13  1  0
 12 15  1  0
 13 17  1  0
 14 18  2  0
 15 31  2  0
 15 36  1  0
 16 18  1  0
 19 32  2  0
 19 36  1  0
 20 21  2  0
 20 22  1  0
 20 36  1  0
 21 23  1  0
 22 24  2  0
 23 25  1  0
 23 27  2  0
 24 27  1  0
 24 33  1  0
 25 28  1  0
 26 33  1  0
 27 34  1  0
 28 29  2  0
 29 34  1  0
M  END
$$$$

     RDKit          3D

 44 50  0  0  0  0  0  0  0  0999 V2000
  -30.6917    2.1287  -34.0578 C   0  0  0  0  0  0  0  0  0  0  0  0
  -30.5153    3.6707  -34.6095 C   0  0  0  0  0  0  0  0  0  0  0  0
  -29.2686    1.8203  -33.6247 C   0  0  0  0  0  0  0  0  0  0  0  0
  -28.6799    0.4912  -33.4405 C   0  0  0  0  0  0  0  0  0  0  0  0
  -28.5748    2.9548  -33.3321 C   0  0  0  0  0  0  0  0  0  0  0  0
  -27.3582    0.4618  -32.8573 C   0  0  0  0  0  0  0  0  0  0  0  0
  -27.2790    2.8673  -32.8889 C   0  0  0  0  0  0  0  0  0  0  0  0
  -26.7195    1.6592  -32.6860 C   0  0  0  0  0  0  0  0  0  0  0  0
  -26.4384   -0.7894  -32.4561 C   0  0  0  0  0  0  0  0  0  0  0  0
  -25.2004    1.3162  -33.2314 C   0  0  0  0  0  0  0  0  0  0  0  0
  -25.0173    0.6466  -30.3508 C   0  0  0  0  0  0  0  0  0  0  0  0
  -24.9332   -0.4746  -32.5870 C   0  0  0  0  0  0  0  0  0  0  0  0
  -24.4923    1.9705  -30.0023 C   0  0  0  0  0  0  0  0  0  0  0  0
  -23.2799   -1.8548  -30.3353 C   0  0  0  0  0  0  0  0  0  0  0  0
  -23.1373   -0.6288  -31.0005 C   0  0  0  0  0  0  0  0  0  0  0  0
  -23.1818    2.5732  -33.4176 C   0  0  0  0  0  0  0  0  0  0  0  0
  -22.9982    4.7218  -31.1032 C   0  0  0  0  0  0  0  0  0  0  0  0
  -22.5362    3.8545  -33.4191 C   0  0  0  0  0  0  0  0  0  0  0  0
  -22.5600    4.9024  -32.5176 C   0  0  0  0  0  0  0  0  0  0  0  0
  -22.2822    6.0926  -33.1667 C   0  0  0  0  0  0  0  0  0  0  0  0
  -22.1800   -2.5607  -29.8811 C   0  0  0  0  0  0  0  0  0  0  0  0
  -22.0197    4.3735  -34.5825 C   0  0  0  0  0  0  0  0  0  0  0  0
  -21.8582   -0.0982  -31.2612 C   0  0  0  0  0  0  0  0  0  0  0  0
  -21.7203    1.0888  -32.1012 C   0  0  0  0  0  0  0  0  0  0  0  0
  -21.5686    3.6866  -35.7546 C   0  0  0  0  0  0  0  0  0  0  0  0
  -21.6558    6.4761  -35.6117 C   0  0  0  0  0  0  0  0  0  0  0  0
  -21.6161    7.8843  -35.6208 C   0  0  0  0  0  0  0  0  0  0  0  0
  -21.2418    5.8157  -36.8514 C   0  0  0  0  0  0  0  0  0  0  0  0
  -21.2208    8.5692  -36.7767 C   0  0  0  0  0  0  0  0  0  0  0  0
  -21.1934    4.4299  -36.8604 C   0  0  0  0  0  0  0  0  0  0  0  0
  -20.8957   -2.0594  -30.1497 C   0  0  0  0  0  0  0  0  0  0  0  0
  -20.7230   -0.7899  -30.8203 C   0  0  0  0  0  0  0  0  0  0  0  0
  -20.8298    6.5295  -37.9691 C   0  0  0  0  0  0  0  0  0  0  0  0
  -20.8332    7.9260  -37.9205 C   0  0  0  0  0  0  0  0  0  0  0  0
  -20.4519    1.6247  -32.2599 C   0  0  0  0  0  0  0  0  0  0  0  0
  -19.4226   -0.2310  -31.0417 C   0  0  0  0  0  0  0  0  0  0  0  0
  -19.3153    1.1069  -31.5940 C   0  0  0  0  0  0  0  0  0  0  0  0
  -26.7014   -1.3212  -31.2162 O   0  0  0  0  0  0  0  0  0  0  0  0
  -24.4993    2.4990  -33.9187 O   0  0  0  0  0  0  0  0  0  0  0  0
  -22.6724    1.5328  -32.8255 O   0  0  0  0  0  0  0  0  0  0  0  0
  -21.4906    2.3602  -35.8607 O   0  0  0  0  0  0  0  0  0  0  0  0
  -19.9047   -2.7460  -29.8511 O   0  0  0  0  0  0  0  0  0  0  0  0
  -24.3321   -0.0574  -31.3427 N   0  0  0  0  0  0  0  0  0  0  0  0
  -21.9574    5.7014  -34.4833 N   0  0  0  0  0  0  0  0  0  0  0  0
  1  2  1  0
  1  3  1  0
  3  4  2  0
  3  5  1  0
  4  6  1  0
  5  7  2  0
  6  8  1  0
  6  9  1  0
  7  8  1  0
  8 10  1  0
  9 12  1  0
  9 38  1  0
 10 39  1  0
 11 13  1  0
 11 43  1  0
 12 43  1  0
 14 15  1  0
 14 21  2  0
 15 23  2  0
 15 43  1  0
 16 18  1  0
 16 39  1  0
 16 40  1  0
 17 19  1  0
 18 19  1  0
 18 22  1  0
 19 20  1  0
 20 44  1  0
 21 31  1  0
 22 25  1  0
 22 44  1  0
 23 24  1  0
 23 32  1  0
 24 35  2  0
 24 40  1  0
 25 30  2  0
 25 41  1  0
 26 27  1  0
 26 28  2  0
 26 44  1  0
 27 29  2  0
 28 30  1  0
 28 33  1  0
 29 34  1  0
 31 32  1  0
 31 42  2  0
 32 36  2  0
 33 34  2  0
 35 37  1  0
 36 37  1  0
M  END
$$$$

     RDKit          3D

 48 51  0  0  0  0  0  0  0  0999 V2000
  -32.8754    7.6374  -26.6551 C   0  0  0  0  0  0  0  0  0  0  0  0
  -30.7325    7.3976  -28.1660 C   0  0  0  0  0  0  0  0  0  0  0  0
  -30.5707    7.6139  -29.5640 C   0  0  0  0  0  0  0  0  0  0  0  0
  -29.6128    6.9235  -27.3875 C   0  0  0  0  0  0  0  0  0  0  0  0
  -29.3402    7.3543  -30.1615 C   0  0  0  0  0  0  0  0  0  0  0  0
  -28.3688    6.6930  -28.0508 C   0  0  0  0  0  0  0  0  0  0  0  0
  -28.2212    6.8772  -29.4343 C   0  0  0  0  0  0  0  0  0  0  0  0
  -27.4602   -1.1909  -32.6231 C   0  0  0  0  0  0  0  0  0  0  0  0
  -27.4055   -0.3852  -33.7833 C   0  0  0  0  0  0  0  0  0  0  0  0
  -26.7558    4.7054  -34.8957 C   0  0  0  0  0  0  0  0  0  0  0  0
  -26.5816   -0.9874  -31.5746 C   0  0  0  0  0  0  0  0  0  0  0  0
  -26.4601    0.5990  -33.8860 C   0  0  0  0  0  0  0  0  0  0  0  0
  -26.6482    5.3745  -30.5419 C   0  0  0  0  0  0  0  0  0  0  0  0
  -26.3755    4.3204  -36.3252 C   0  0  0  0  0  0  0  0  0  0  0  0
  -25.9427    4.5345  -33.7188 C   0  0  0  0  0  0  0  0  0  0  0  0
  -25.6828    0.0750  -31.6688 C   0  0  0  0  0  0  0  0  0  0  0  0
  -25.5611    0.8602  -32.8246 C   0  0  0  0  0  0  0  0  0  0  0  0
  -25.1003    5.2566  -30.9839 C   0  0  0  0  0  0  0  0  0  0  0  0
  -24.5220    1.9644  -32.9681 C   0  0  0  0  0  0  0  0  0  0  0  0
  -24.5706    4.9398  -33.5491 C   0  0  0  0  0  0  0  0  0  0  0  0
  -24.3758    4.2915  -31.9568 C   0  0  0  0  0  0  0  0  0  0  0  0
  -24.2127    3.2255  -36.8304 C   0  0  0  0  0  0  0  0  0  0  0  0
  -23.6388    4.3064  -37.5244 C   0  0  0  0  0  0  0  0  0  0  0  0
  -23.4410    2.0811  -36.5581 C   0  0  0  0  0  0  0  0  0  0  0  0
  -22.7658   -1.6891  -31.0280 C   0  0  0  0  0  0  0  0  0  0  0  0
  -22.6260    1.6418  -32.5275 C   0  0  0  0  0  0  0  0  0  0  0  0
  -22.2694    4.2646  -37.8846 C   0  0  0  0  0  0  0  0  0  0  0  0
  -22.1892   -2.9073  -30.7903 C   0  0  0  0  0  0  0  0  0  0  0  0
  -22.0310   -0.5196  -31.2872 C   0  0  0  0  0  0  0  0  0  0  0  0
  -22.1147    2.0277  -36.9346 C   0  0  0  0  0  0  0  0  0  0  0  0
  -21.5194    3.0940  -37.6130 C   0  0  0  0  0  0  0  0  0  0  0  0
  -20.7934   -3.0156  -30.7944 C   0  0  0  0  0  0  0  0  0  0  0  0
  -20.8837    6.3503  -37.7985 C   0  0  0  0  0  0  0  0  0  0  0  0
  -20.6299   -0.5786  -31.2519 C   0  0  0  0  0  0  0  0  0  0  0  0
  -20.1961   -4.3021  -30.5664 C   0  0  0  0  0  0  0  0  0  0  0  0
  -19.9897   -1.8583  -31.0312 C   0  0  0  0  0  0  0  0  0  0  0  0
  -32.8315    8.7147  -27.5262 O   0  0  0  0  0  0  0  0  0  0  0  0
  -32.1333    7.1475  -25.7962 O   0  0  0  0  0  0  0  0  0  0  0  0
  -27.1163    4.3340  -30.4442 O   0  0  0  0  0  0  0  0  0  0  0  0
  -25.5000    3.1843  -36.4023 O   0  0  0  0  0  0  0  0  0  0  0  0
  -21.7079    1.5716  -33.3732 O   0  0  0  0  0  0  0  0  0  0  0  0
  -21.7233    5.3877  -38.4771 O   0  0  0  0  0  0  0  0  0  0  0  0
  -19.1708   -4.7752  -30.9573 O   0  0  0  0  0  0  0  0  0  0  0  0
  -32.0128    7.7859  -27.8019 N   0  0  0  0  0  0  0  0  0  0  0  0
  -26.9067    6.6194  -30.0565 N   0  0  0  0  0  0  0  0  0  0  0  0
  -24.9698    3.0837  -32.1266 N   0  0  0  0  0  0  0  0  0  0  0  0
  -22.7466    0.6965  -31.5244 N   0  0  0  0  0  0  0  0  0  0  0  0
  -20.8545   -4.5575  -29.4093 N   0  0  0  0  0  0  0  0  0  0  0  0
  1 37  1  0
  1 38  2  0
  2  3  1  0
  2  4  1  0
  2 44  2  3
  3  5  2  0
  4  6  1  0
  5  7  1  0
  6  7  2  0
  7 45  1  0
  8  9  2  0
  8 11  1  0
  9 12  1  0
 10 14  1  0
 10 15  1  0
 11 16  2  0
 12 17  2  0
 13 18  1  0
 13 39  2  0
 13 45  1  0
 14 40  1  0
 15 20  1  0
 16 17  1  0
 17 19  1  0
 18 21  1  0
 19 26  1  0
 19 46  1  0
 20 21  1  0
 21 46  1  0
 22 23  2  0
 22 24  1  0
 22 40  1  0
 23 27  1  0
 24 30  2  0
 25 28  2  0
 25 29  1  0
 26 41  2  0
 26 47  1  0
 27 31  2  0
 27 42  1  0
 28 32  1  0
 29 34  2  0
 29 47  1  0
 30 31  1  0
 32 35  1  0
 32 36  2  0
 33 42  1  0
 34 36  1  0
 35 43  2  0
 35 48  1  0
 37 44  1  0
M  END
$$$$

     RDKit          3D

 66 70  0  0  0  0  0  0  0  0999 V2000
  -31.9992    8.7172  -31.4377 C   0  0  0  0  0  0  0  0  0  0  0  0
  -31.4806    7.9562  -29.1004 C   0  0  0  0  0  0  0  0  0  0  0  0
  -31.3503    7.4351  -26.6344 C   0  0  0  0  0  0  0  0  0  0  0  0
  -31.4401    9.3245  -32.6424 C   0  0  0  0  0  0  0  0  0  0  0  0
  -30.8973    8.0462  -30.4064 C   0  0  0  0  0  0  0  0  0  0  0  0
  -30.4872    7.3950  -25.3782 C   0  0  0  0  0  0  0  0  0  0  0  0
  -30.6839    7.5154  -27.9954 C   0  0  0  0  0  0  0  0  0  0  0  0
  -29.4629    7.6243  -30.5456 C   0  0  0  0  0  0  0  0  0  0  0  0
  -29.3419    7.1987  -28.1495 C   0  0  0  0  0  0  0  0  0  0  0  0
  -28.7461    7.2554  -29.3999 C   0  0  0  0  0  0  0  0  0  0  0  0
  -28.7385    7.5522  -31.9226 C   0  0  0  0  0  0  0  0  0  0  0  0
  -27.8021    5.1463  -31.4144 C   0  0  0  0  0  0  0  0  0  0  0  0
  -27.5327    2.0497  -34.7793 C   0  0  0  0  0  0  0  0  0  0  0  0
  -27.5086    3.9411  -32.1997 C   0  0  0  0  0  0  0  0  0  0  0  0
  -27.6397    6.5167  -32.1132 C   0  0  0  0  0  0  0  0  0  0  0  0
  -26.5024    1.6341  -32.4909 C   0  0  0  0  0  0  0  0  0  0  0  0
  -26.6852    2.8169  -31.6360 C   0  0  0  0  0  0  0  0  0  0  0  0
  -26.3420    1.7308  -33.9639 C   0  0  0  0  0  0  0  0  0  0  0  0
  -26.3327    2.5197  -30.2885 C   0  0  0  0  0  0  0  0  0  0  0  0
  -26.2715    7.1873  -31.7436 C   0  0  0  0  0  0  0  0  0  0  0  0
  -26.2055    8.6371  -31.7731 C   0  0  0  0  0  0  0  0  0  0  0  0
  -25.6187    0.5680  -34.6152 C   0  0  0  0  0  0  0  0  0  0  0  0
  -25.2490    1.0891  -31.7541 C   0  0  0  0  0  0  0  0  0  0  0  0
  -25.2255    1.4793  -30.3402 C   0  0  0  0  0  0  0  0  0  0  0  0
  -25.0837    5.0434  -35.4759 C   0  0  0  0  0  0  0  0  0  0  0  0
  -25.1982    6.6474  -30.9727 C   0  0  0  0  0  0  0  0  0  0  0  0
  -24.9056    4.1084  -37.7304 C   0  0  0  0  0  0  0  0  0  0  0  0
  -24.5245    0.5707  -35.3257 C   0  0  0  0  0  0  0  0  0  0  0  0
  -24.3066   -0.9840  -31.1470 C   0  0  0  0  0  0  0  0  0  0  0  0
  -24.1301    5.6324  -32.7652 C   0  0  0  0  0  0  0  0  0  0  0  0
  -23.7460    5.6088  -35.2236 C   0  0  0  0  0  0  0  0  0  0  0  0
  -23.9471    6.3244  -31.5571 C   0  0  0  0  0  0  0  0  0  0  0  0
  -23.4890    1.3413  -35.9461 C   0  0  0  0  0  0  0  0  0  0  0  0
  -23.6973    2.8207  -36.0368 C   0  0  0  0  0  0  0  0  0  0  0  0
  -23.2099    5.6838  -33.8322 C   0  0  0  0  0  0  0  0  0  0  0  0
  -23.0978   -1.7918  -31.0065 C   0  0  0  0  0  0  0  0  0  0  0  0
  -22.8381    0.6212  -32.3423 C   0  0  0  0  0  0  0  0  0  0  0  0
  -22.7305    6.1927  -30.8312 C   0  0  0  0  0  0  0  0  0  0  0  0
  -21.8137   -1.0506  -30.6920 C   0  0  0  0  0  0  0  0  0  0  0  0
  -21.7377    0.3600  -31.3210 C   0  0  0  0  0  0  0  0  0  0  0  0
  -21.8016    5.2988  -33.6076 C   0  0  0  0  0  0  0  0  0  0  0  0
  -21.6188    5.5093  -31.2401 C   0  0  0  0  0  0  0  0  0  0  0  0
  -21.3902    4.7568  -32.3095 C   0  0  0  0  0  0  0  0  0  0  0  0
  -20.9334    0.4587  -26.9728 C   0  0  0  0  0  0  0  0  0  0  0  0
  -20.6517   -3.0142  -30.4182 C   0  0  0  0  0  0  0  0  0  0  0  0
  -20.6781   -1.4517  -28.5646 C   0  0  0  0  0  0  0  0  0  0  0  0
  -20.2784    1.9112  -32.4861 C   0  0  0  0  0  0  0  0  0  0  0  0
  -20.2409    2.9023  -31.3744 C   0  0  0  0  0  0  0  0  0  0  0  0
  -20.1715   -4.3120  -30.9942 C   0  0  0  0  0  0  0  0  0  0  0  0
  -19.9976   -0.6214  -27.5158 C   0  0  0  0  0  0  0  0  0  0  0  0
  -20.1777    4.2146  -31.8549 C   0  0  0  0  0  0  0  0  0  0  0  0
  -19.9452   -2.5182  -29.2386 C   0  0  0  0  0  0  0  0  0  0  0  0
  -27.8005    6.1609  -33.5451 O   0  0  0  0  0  0  0  0  0  0  0  0
  -27.3071    2.3813  -35.9376 O   0  0  0  0  0  0  0  0  0  0  0  0
  -25.5338    9.1532  -30.7982 O   0  0  0  0  0  0  0  0  0  0  0  0
  -25.4317   -1.5196  -31.1322 O   0  0  0  0  0  0  0  0  0  0  0  0
  -24.1458    0.0378  -32.1435 O   0  0  0  0  0  0  0  0  0  0  0  0
  -24.1745    3.1726  -37.3298 O   0  0  0  0  0  0  0  0  0  0  0  0
  -23.3224   -2.8067  -30.1547 O   0  0  0  0  0  0  0  0  0  0  0  0
  -22.9455    1.8875  -32.7386 O   0  0  0  0  0  0  0  0  0  0  0  0
  -21.6847   -0.8726  -29.2778 O   0  0  0  0  0  0  0  0  0  0  0  0
  -20.9112   -1.9611  -31.2843 O   0  0  0  0  0  0  0  0  0  0  0  0
  -20.4790    0.6049  -32.0235 O   0  0  0  0  0  0  0  0  0  0  0  0
  -20.2674    2.1750  -33.7880 O   0  0  0  0  0  0  0  0  0  0  0  0
  -19.6689   -1.5425  -26.4629 O   0  0  0  0  0  0  0  0  0  0  0  0
  -19.1112    2.4243  -30.6987 O   0  0  0  0  0  0  0  0  0  0  0  0
  1  4  1  0
  1  5  1  0
  2  5  2  0
  2  7  1  0
  3  6  1  0
  3  7  1  0
  5  8  1  0
  7  9  2  0
  8 10  2  0
  8 11  1  0
  9 10  1  0
 11 15  1  0
 12 14  1  0
 12 15  1  0
 13 18  1  0
 13 54  2  0
 14 17  1  0
 15 20  1  0
 15 53  1  0
 16 17  1  0
 16 18  1  0
 16 23  1  0
 17 19  1  0
 18 22  1  0
 19 24  1  0
 20 21  1  0
 20 26  1  0
 21 55  1  0
 22 28  2  3
 23 24  1  0
 25 31  1  0
 26 32  1  0
 27 58  1  0
 28 33  1  0
 29 36  1  0
 29 56  2  0
 29 57  1  0
 30 32  1  0
 30 35  1  0
 31 35  1  0
 32 38  1  0
 33 34  1  0
 34 58  1  0
 35 41  1  0
 36 39  1  0
 36 59  1  0
 37 40  1  0
 37 57  1  0
 37 60  1  0
 38 42  2  0
 39 40  1  0
 39 61  1  0
 39 62  1  0
 40 63  1  0
 41 43  1  0
 42 43  1  0
 43 51  1  0
 44 50  1  0
 45 49  1  0
 45 52  1  0
 45 62  1  0
 46 50  1  0
 46 52  1  0
 46 61  1  0
 47 48  1  0
 47 63  1  0
 47 64  2  0
 48 51  1  0
 48 66  1  0
 50 65  1  0
M  END
$$$$

     RDKit          3D

 39 44  0  0  0  0  0  0  0  0999 V2000
  -29.9633    2.9112  -35.2104 C   0  0  0  0  0  0  0  0  0  0  0  0
  -29.1965    0.8177  -34.0840 C   0  0  0  0  0  0  0  0  0  0  0  0
  -28.8124    2.1204  -34.5129 C   0  0  0  0  0  0  0  0  0  0  0  0
  -28.1862   -0.0763  -33.6526 C   0  0  0  0  0  0  0  0  0  0  0  0
  -27.5050    7.1734  -35.6438 C   0  0  0  0  0  0  0  0  0  0  0  0
  -27.4196    2.4616  -34.4907 C   0  0  0  0  0  0  0  0  0  0  0  0
  -27.3289    4.9521  -34.2911 C   0  0  0  0  0  0  0  0  0  0  0  0
  -26.8180    0.3312  -33.6621 C   0  0  0  0  0  0  0  0  0  0  0  0
  -26.6344    6.1667  -34.8284 C   0  0  0  0  0  0  0  0  0  0  0  0
  -26.0090    4.1414  -36.0358 C   0  0  0  0  0  0  0  0  0  0  0  0
  -25.5592    5.5698  -35.7278 C   0  0  0  0  0  0  0  0  0  0  0  0
  -25.2277   -0.5174  -31.9659 C   0  0  0  0  0  0  0  0  0  0  0  0
  -24.7701    3.3345  -36.4019 C   0  0  0  0  0  0  0  0  0  0  0  0
  -24.3628    3.2113  -37.7182 C   0  0  0  0  0  0  0  0  0  0  0  0
  -24.0549    2.6885  -35.4197 C   0  0  0  0  0  0  0  0  0  0  0  0
  -23.7263   -0.7634  -31.6741 C   0  0  0  0  0  0  0  0  0  0  0  0
  -23.2794    2.4202  -38.1201 C   0  0  0  0  0  0  0  0  0  0  0  0
  -23.1161   -1.9628  -31.2435 C   0  0  0  0  0  0  0  0  0  0  0  0
  -22.9740    1.8224  -35.8032 C   0  0  0  0  0  0  0  0  0  0  0  0
  -23.1282    7.0398  -32.8809 C   0  0  0  0  0  0  0  0  0  0  0  0
  -22.7635    6.6512  -34.1583 C   0  0  0  0  0  0  0  0  0  0  0  0
  -22.6303    0.1850  -31.8353 C   0  0  0  0  0  0  0  0  0  0  0  0
  -22.6091    1.6746  -37.1363 C   0  0  0  0  0  0  0  0  0  0  0  0
  -22.4872    1.4972  -32.3590 C   0  0  0  0  0  0  0  0  0  0  0  0
  -22.6764    6.3311  -31.7664 C   0  0  0  0  0  0  0  0  0  0  0  0
  -22.0579    5.3780  -34.3315 C   0  0  0  0  0  0  0  0  0  0  0  0
  -21.9452    5.1826  -31.9488 C   0  0  0  0  0  0  0  0  0  0  0  0
  -21.6952    4.6360  -33.1915 C   0  0  0  0  0  0  0  0  0  0  0  0
  -21.4382   -0.4700  -31.4137 C   0  0  0  0  0  0  0  0  0  0  0  0
  -20.9179    3.3587  -33.2816 C   0  0  0  0  0  0  0  0  0  0  0  0
  -20.1692    1.4249  -32.0097 C   0  0  0  0  0  0  0  0  0  0  0  0
  -28.0948    5.0255  -33.3467 O   0  0  0  0  0  0  0  0  0  0  0  0
  -26.0451   -0.3074  -31.0599 O   0  0  0  0  0  0  0  0  0  0  0  0
  -26.8969    3.7768  -34.8763 N   0  0  0  0  0  0  0  0  0  0  0  0
  -26.5031    1.5596  -34.1041 N   0  0  0  0  0  0  0  0  0  0  0  0
  -25.6978   -0.5121  -33.3337 N   0  0  0  0  0  0  0  0  0  0  0  0
  -21.7046   -1.7731  -31.0709 N   0  0  0  0  0  0  0  0  0  0  0  0
  -21.2507    2.0956  -32.5119 N   0  0  0  0  0  0  0  0  0  0  0  0
  -20.2331    0.1589  -31.5120 N   0  0  0  0  0  0  0  0  0  0  0  0
  1  3  1  0
  2  3  2  0
  2  4  1  0
  3  6  1  0
  4  8  2  0
  5  9  1  0
  6 34  1  0
  6 35  2  0
  7  9  1  0
  7 32  2  0
  7 34  1  0
  8 35  1  0
  8 36  1  0
  9 11  1  0
 10 11  1  0
 10 13  1  0
 10 34  1  0
 12 16  1  0
 12 33  2  0
 12 36  1  0
 13 14  2  0
 13 15  1  0
 14 17  1  0
 15 19  2  0
 16 18  1  0
 16 22  1  0
 17 23  2  0
 18 37  1  0
 19 23  1  0
 20 21  2  0
 20 25  1  0
 21 26  1  0
 22 24  1  0
 22 29  2  0
 24 38  1  0
 25 27  2  0
 26 28  2  0
 27 28  1  0
 28 30  1  0
 29 37  1  0
 29 39  1  0
 30 38  1  0
 31 38  1  0
 31 39  2  0
M  END
$$$$

     RDKit          3D

 36 40  0  0  0  0  0  0  0  0999 V2000
  -30.5975   -0.5995  -35.1988 C   0  0  0  0  0  0  0  0  0  0  0  0
  -29.9863    1.7203  -34.4125 C   0  0  0  0  0  0  0  0  0  0  0  0
  -29.4903    0.3723  -34.8454 C   0  0  0  0  0  0  0  0  0  0  0  0
  -28.8830   -1.1327  -32.8080 C   0  0  0  0  0  0  0  0  0  0  0  0
  -28.5061   -0.1358  -33.7416 C   0  0  0  0  0  0  0  0  0  0  0  0
  -27.9404   -1.5737  -31.8468 C   0  0  0  0  0  0  0  0  0  0  0  0
  -27.2367    0.4520  -33.6382 C   0  0  0  0  0  0  0  0  0  0  0  0
  -26.6532   -1.0033  -31.7795 C   0  0  0  0  0  0  0  0  0  0  0  0
  -26.2853    0.0462  -32.6464 C   0  0  0  0  0  0  0  0  0  0  0  0
  -25.2941    2.0197  -33.6235 C   0  0  0  0  0  0  0  0  0  0  0  0
  -25.1075    0.9535  -32.7223 C   0  0  0  0  0  0  0  0  0  0  0  0
  -24.2184    4.3191  -33.8308 C   0  0  0  0  0  0  0  0  0  0  0  0
  -23.9069    1.2466  -32.0124 C   0  0  0  0  0  0  0  0  0  0  0  0
  -23.4247    2.5570  -32.4221 C   0  0  0  0  0  0  0  0  0  0  0  0
  -23.0651   -1.0681  -31.4825 C   0  0  0  0  0  0  0  0  0  0  0  0
  -23.1756    0.3757  -31.0505 C   0  0  0  0  0  0  0  0  0  0  0  0
  -22.1067    5.0192  -34.8620 C   0  0  0  0  0  0  0  0  0  0  0  0
  -21.9900    6.2358  -35.5164 C   0  0  0  0  0  0  0  0  0  0  0  0
  -21.6695   -3.0776  -31.1004 C   0  0  0  0  0  0  0  0  0  0  0  0
  -21.7025   -1.6725  -31.2356 C   0  0  0  0  0  0  0  0  0  0  0  0
  -21.4013    3.9101  -35.2776 C   0  0  0  0  0  0  0  0  0  0  0  0
  -21.1796    6.3602  -36.6460 C   0  0  0  0  0  0  0  0  0  0  0  0
  -21.0039    7.6837  -37.2827 C   0  0  0  0  0  0  0  0  0  0  0  0
  -20.5411   -0.9072  -31.0758 C   0  0  0  0  0  0  0  0  0  0  0  0
  -20.5970    3.9704  -36.4407 C   0  0  0  0  0  0  0  0  0  0  0  0
  -20.4821    5.2098  -37.1333 C   0  0  0  0  0  0  0  0  0  0  0  0
  -20.4425   -3.6914  -30.9060 C   0  0  0  0  0  0  0  0  0  0  0  0
  -19.2644   -2.9261  -30.7451 C   0  0  0  0  0  0  0  0  0  0  0  0
  -19.3031   -1.5461  -30.8010 C   0  0  0  0  0  0  0  0  0  0  0  0
  -25.2704    4.9400  -34.0774 O   0  0  0  0  0  0  0  0  0  0  0  0
  -22.4313    3.1982  -31.9166 O   0  0  0  0  0  0  0  0  0  0  0  0
  -21.6257    8.7008  -36.7847 O   0  0  0  0  0  0  0  0  0  0  0  0
  -20.2119    7.8313  -38.2426 O   0  0  0  0  0  0  0  0  0  0  0  0
  -24.2879    2.9936  -33.4103 N   0  0  0  0  0  0  0  0  0  0  0  0
  -22.9695    4.9730  -33.7425 N   0  0  0  0  0  0  0  0  0  0  0  0
  -26.5806    1.7148  -34.6293 S   0  0  0  0  0  0  0  0  0  0  0  0
  1  3  1  0
  2  3  1  0
  3  5  1  0
  4  5  1  0
  4  6  1  0
  5  7  2  0
  6  8  2  0
  7  9  1  0
  7 36  1  0
  8  9  1  0
  9 11  2  0
 10 11  1  0
 10 34  1  0
 10 36  1  0
 11 13  1  0
 12 30  2  0
 12 34  1  0
 12 35  1  0
 13 14  1  0
 13 16  1  0
 14 31  2  0
 14 34  1  0
 15 16  1  0
 15 20  1  0
 17 18  2  0
 17 21  1  0
 17 35  1  0
 18 22  1  0
 19 20  2  0
 19 27  1  0
 20 24  1  0
 21 25  2  0
 22 23  1  0
 22 26  2  0
 23 32  2  0
 23 33  1  0
 24 29  2  0
 25 26  1  0
 27 28  2  0
 28 29  1  0
M  END
$$$$

     RDKit          3D

 37 38  0  0  0  0  0  0  0  0999 V2000
  -32.6935    2.6415  -36.0995 C   0  0  0  0  0  0  0  0  0  0  0  0
  -31.7959    4.4586  -34.7840 C   0  0  0  0  0  0  0  0  0  0  0  0
  -31.2937    2.1758  -36.1989 C   0  0  0  0  0  0  0  0  0  0  0  0
  -30.5314    3.9158  -34.6839 C   0  0  0  0  0  0  0  0  0  0  0  0
  -30.2489    2.8220  -35.5133 C   0  0  0  0  0  0  0  0  0  0  0  0
  -28.9060    2.1025  -35.6231 C   0  0  0  0  0  0  0  0  0  0  0  0
  -28.6138    1.2876  -34.4952 C   0  0  0  0  0  0  0  0  0  0  0  0
  -28.0943    6.7926  -31.7392 C   0  0  0  0  0  0  0  0  0  0  0  0
  -28.1363    7.1341  -30.3797 C   0  0  0  0  0  0  0  0  0  0  0  0
  -27.3516    0.7251  -34.1347 C   0  0  0  0  0  0  0  0  0  0  0  0
  -26.9622    6.2189  -32.2607 C   0  0  0  0  0  0  0  0  0  0  0  0
  -27.0235    6.9131  -29.5660 C   0  0  0  0  0  0  0  0  0  0  0  0
  -26.4712    2.4805  -32.5883 C   0  0  0  0  0  0  0  0  0  0  0  0
  -25.8057    5.9830  -31.4671 C   0  0  0  0  0  0  0  0  0  0  0  0
  -25.8421    6.3614  -30.1026 C   0  0  0  0  0  0  0  0  0  0  0  0
  -25.1121    3.0283  -32.2669 C   0  0  0  0  0  0  0  0  0  0  0  0
  -24.5690   -0.0876  -31.2108 C   0  0  0  0  0  0  0  0  0  0  0  0
  -24.2075    3.7265  -30.1604 C   0  0  0  0  0  0  0  0  0  0  0  0
  -24.0667    4.1199  -31.7774 C   0  0  0  0  0  0  0  0  0  0  0  0
  -23.6271   -1.3174  -31.2411 C   0  0  0  0  0  0  0  0  0  0  0  0
  -22.3054   -1.2646  -30.5020 C   0  0  0  0  0  0  0  0  0  0  0  0
  -22.1323   -0.6325  -29.2813 C   0  0  0  0  0  0  0  0  0  0  0  0
  -21.2271   -1.9530  -31.0835 C   0  0  0  0  0  0  0  0  0  0  0  0
  -20.8688   -0.7536  -28.6067 C   0  0  0  0  0  0  0  0  0  0  0  0
  -20.0045   -2.0582  -30.4397 C   0  0  0  0  0  0  0  0  0  0  0  0
  -19.8154   -1.4817  -29.1926 C   0  0  0  0  0  0  0  0  0  0  0  0
  -29.5485    4.4434  -33.7716 O   0  0  0  0  0  0  0  0  0  0  0  0
  -26.9681    3.6060  -34.6474 O   0  0  0  0  0  0  0  0  0  0  0  0
  -27.1875    3.4486  -33.4137 O   0  0  0  0  0  0  0  0  0  0  0  0
  -26.1063    2.5744  -31.3997 O   0  0  0  0  0  0  0  0  0  0  0  0
  -25.7324   -0.4090  -30.6673 O   0  0  0  0  0  0  0  0  0  0  0  0
  -25.1729   -0.8658  -33.7519 O   0  0  0  0  0  0  0  0  0  0  0  0
  -23.7090    1.1144  -33.3076 O   0  0  0  0  0  0  0  0  0  0  0  0
  -22.9574    3.8016  -31.9881 O   0  0  0  0  0  0  0  0  0  0  0  0
  -26.3926    1.2505  -33.1615 N   0  0  0  0  0  0  0  0  0  0  0  0
  -24.6367    5.3601  -32.0707 N   0  0  0  0  0  0  0  0  0  0  0  0
  -24.9249    0.3922  -33.0535 S   0  0  0  0  0  0  0  0  0  0  0  0
  1  3  1  0
  2  4  1  0
  3  5  1  0
  4  5  2  3
  4 27  1  0
  5  6  1  0
  6  7  1  0
  7 10  1  0
  8  9  2  0
  8 11  1  0
  9 12  1  0
 10 35  1  0
 11 14  2  0
 12 15  2  0
 13 29  1  0
 13 30  1  0
 13 35  1  0
 14 15  1  0
 14 36  1  0
 16 19  1  0
 16 30  1  0
 17 20  1  0
 17 31  1  0
 17 37  1  0
 18 19  1  0
 19 34  1  0
 19 36  1  0
 20 21  1  0
 21 22  2  0
 21 23  1  0
 22 24  1  0
 23 25  1  0
 24 26  1  0
 25 26  2  0
 28 29  1  0
 32 37  1  0
 33 37  1  0
 35 37  1  0
M  END
$$$$

     RDKit          3D

 41 46  0  0  0  0  0  0  0  0999 V2000
  -30.2048   -0.2157  -33.3792 C   0  0  0  0  0  0  0  0  0  0  0  0
  -29.8284    1.2274  -33.7213 C   0  0  0  0  0  0  0  0  0  0  0  0
  -28.4667    1.5338  -33.0887 C   0  0  0  0  0  0  0  0  0  0  0  0
  -28.3186    3.0535  -32.8170 C   0  0  0  0  0  0  0  0  0  0  0  0
  -27.5351    4.4596  -30.7068 C   0  0  0  0  0  0  0  0  0  0  0  0
  -26.3908    0.1261  -33.3553 C   0  0  0  0  0  0  0  0  0  0  0  0
  -25.9258    3.6729  -32.3069 C   0  0  0  0  0  0  0  0  0  0  0  0
  -25.8835    5.0597  -32.8665 C   0  0  0  0  0  0  0  0  0  0  0  0
  -25.3104    0.9979  -32.8323 C   0  0  0  0  0  0  0  0  0  0  0  0
  -25.1103    2.2268  -33.5631 C   0  0  0  0  0  0  0  0  0  0  0  0
  -24.0767   -0.8248  -31.6348 C   0  0  0  0  0  0  0  0  0  0  0  0
  -24.0670    0.4539  -32.2857 C   0  0  0  0  0  0  0  0  0  0  0  0
  -23.7549    2.8515  -33.7312 C   0  0  0  0  0  0  0  0  0  0  0  0
  -22.7941   -2.6880  -30.5060 C   0  0  0  0  0  0  0  0  0  0  0  0
  -22.8550   -1.3661  -31.1028 C   0  0  0  0  0  0  0  0  0  0  0  0
  -22.8488    1.2020  -32.3254 C   0  0  0  0  0  0  0  0  0  0  0  0
  -22.6092    4.3882  -35.2327 C   0  0  0  0  0  0  0  0  0  0  0  0
  -22.4138    5.6926  -34.7367 C   0  0  0  0  0  0  0  0  0  0  0  0
  -21.9030    4.2656  -36.5087 C   0  0  0  0  0  0  0  0  0  0  0  0
  -21.5184   -3.0878  -30.0105 C   0  0  0  0  0  0  0  0  0  0  0  0
  -21.7092   -0.5992  -31.2188 C   0  0  0  0  0  0  0  0  0  0  0  0
  -21.6485    0.6516  -31.7877 C   0  0  0  0  0  0  0  0  0  0  0  0
  -21.6806    6.4389  -35.6766 C   0  0  0  0  0  0  0  0  0  0  0  0
  -21.3784    5.6280  -36.7643 C   0  0  0  0  0  0  0  0  0  0  0  0
  -21.4000    7.8252  -35.7369 C   0  0  0  0  0  0  0  0  0  0  0  0
  -20.7905    6.1423  -37.9166 C   0  0  0  0  0  0  0  0  0  0  0  0
  -20.8340    8.3283  -36.8829 C   0  0  0  0  0  0  0  0  0  0  0  0
  -20.5723    7.5019  -38.0078 C   0  0  0  0  0  0  0  0  0  0  0  0
  -20.3532   -2.3601  -30.2509 C   0  0  0  0  0  0  0  0  0  0  0  0
  -20.4471   -1.0447  -30.7422 C   0  0  0  0  0  0  0  0  0  0  0  0
  -19.5139   -0.0117  -30.9240 C   0  0  0  0  0  0  0  0  0  0  0  0
  -19.0084   -2.8442  -29.8140 C   0  0  0  0  0  0  0  0  0  0  0  0
  -27.4869    0.8198  -33.9086 O   0  0  0  0  0  0  0  0  0  0  0  0
  -26.1473    5.4689  -33.9928 O   0  0  0  0  0  0  0  0  0  0  0  0
  -26.1495    5.9870  -31.8602 O   0  0  0  0  0  0  0  0  0  0  0  0
  -25.1670   -1.5167  -31.5105 O   0  0  0  0  0  0  0  0  0  0  0  0
  -23.6750    3.5518  -34.8261 O   0  0  0  0  0  0  0  0  0  0  0  0
  -22.7485    2.4550  -32.9055 O   0  0  0  0  0  0  0  0  0  0  0  0
  -22.9096    6.1421  -33.6388 O   0  0  0  0  0  0  0  0  0  0  0  0
  -27.2956    3.3903  -31.7716 N   0  0  0  0  0  0  0  0  0  0  0  0
  -20.2164    1.0455  -31.6211 N   0  0  0  0  0  0  0  0  0  0  0  0
  1  2  1  0
  2  3  1  0
  3  4  1  0
  3 33  1  0
  4 40  1  0
  5 40  1  0
  6  9  1  0
  6 33  1  0
  7  8  1  0
  7 40  1  0
  8 34  2  0
  8 35  1  0
  9 10  1  0
  9 12  1  0
 10 13  1  0
 11 12  2  0
 11 15  1  0
 11 36  1  0
 12 16  1  0
 13 37  1  0
 13 38  1  0
 14 15  1  0
 14 20  1  0
 15 21  2  0
 16 22  2  0
 16 38  1  0
 17 18  1  0
 17 19  1  0
 17 37  1  0
 18 23  2  0
 18 39  1  0
 19 24  1  0
 20 29  2  0
 21 22  1  0
 21 30  1  0
 22 41  1  0
 23 24  1  0
 23 25  1  0
 24 26  1  0
 25 27  2  0
 26 28  2  0
 27 28  1  0
 29 30  1  0
 29 32  1  0
 30 31  1  0
 31 41  1  0
M  END
$$$$

     RDKit          3D

 57 58  0  0  0  0  0  0  0  0999 V2000
  -30.7318   -1.4550  -35.1252 C   0  0  0  0  0  0  0  0  0  0  0  0
  -29.4083   -1.1311  -34.5580 C   0  0  0  0  0  0  0  0  0  0  0  0
  -29.2976    0.2395  -33.9357 C   0  0  0  0  0  0  0  0  0  0  0  0
  -28.8148   -2.0766  -33.5935 C   0  0  0  0  0  0  0  0  0  0  0  0
  -28.2070    0.9295  -34.6214 C   0  0  0  0  0  0  0  0  0  0  0  0
  -27.9215    2.2839  -34.1825 C   0  0  0  0  0  0  0  0  0  0  0  0
  -27.7260    2.4430  -32.6976 C   0  0  0  0  0  0  0  0  0  0  0  0
  -27.7940    7.9123  -33.0611 C   0  0  0  0  0  0  0  0  0  0  0  0
  -26.7715    2.8420  -35.0084 C   0  0  0  0  0  0  0  0  0  0  0  0
  -26.4890    9.9399  -32.2573 C   0  0  0  0  0  0  0  0  0  0  0  0
  -26.4316    8.3903  -32.5697 C   0  0  0  0  0  0  0  0  0  0  0  0
  -26.1318    7.6556  -31.2269 C   0  0  0  0  0  0  0  0  0  0  0  0
  -25.5112   -0.7894  -31.9854 C   0  0  0  0  0  0  0  0  0  0  0  0
  -25.5141    2.0197  -34.8562 C   0  0  0  0  0  0  0  0  0  0  0  0
  -25.5007    4.6575  -35.8902 C   0  0  0  0  0  0  0  0  0  0  0  0
  -25.2594    6.9911  -34.4193 C   0  0  0  0  0  0  0  0  0  0  0  0
  -25.3573    8.2567  -33.6519 C   0  0  0  0  0  0  0  0  0  0  0  0
  -25.2584    8.4933  -30.2962 C   0  0  0  0  0  0  0  0  0  0  0  0
  -24.8397    2.0131  -33.4999 C   0  0  0  0  0  0  0  0  0  0  0  0
  -24.2771   -0.0430  -32.1523 C   0  0  0  0  0  0  0  0  0  0  0  0
  -24.1353    0.6693  -33.4154 C   0  0  0  0  0  0  0  0  0  0  0  0
  -24.1736    5.3261  -35.7563 C   0  0  0  0  0  0  0  0  0  0  0  0
  -24.0006    6.5444  -34.9644 C   0  0  0  0  0  0  0  0  0  0  0  0
  -23.7839    3.0363  -33.2806 C   0  0  0  0  0  0  0  0  0  0  0  0
  -23.9631    3.9334  -32.2379 C   0  0  0  0  0  0  0  0  0  0  0  0
  -23.2579    0.1447  -31.1362 C   0  0  0  0  0  0  0  0  0  0  0  0
  -23.4155    7.0608  -30.4854 C   0  0  0  0  0  0  0  0  0  0  0  0
  -22.9336    4.7425  -31.7259 C   0  0  0  0  0  0  0  0  0  0  0  0
  -22.8889    4.9761  -30.3175 C   0  0  0  0  0  0  0  0  0  0  0  0
  -22.2756    3.5924  -28.3301 C   0  0  0  0  0  0  0  0  0  0  0  0
  -22.0509    3.9316  -29.7234 C   0  0  0  0  0  0  0  0  0  0  0  0
  -22.1688    7.2174  -31.2474 C   0  0  0  0  0  0  0  0  0  0  0  0
  -21.8987    2.1550  -28.1555 C   0  0  0  0  0  0  0  0  0  0  0  0
  -20.9671   -0.8359  -29.1418 C   0  0  0  0  0  0  0  0  0  0  0  0
  -21.0009    1.7844  -27.0363 C   0  0  0  0  0  0  0  0  0  0  0  0
  -20.7332    0.2762  -26.8362 C   0  0  0  0  0  0  0  0  0  0  0  0
  -20.6224    4.0269  -30.0819 C   0  0  0  0  0  0  0  0  0  0  0  0
  -20.1029   -0.8449  -30.4150 C   0  0  0  0  0  0  0  0  0  0  0  0
  -20.0659   -0.3881  -28.0489 C   0  0  0  0  0  0  0  0  0  0  0  0
  -19.7159   -0.1736  -25.6653 C   0  0  0  0  0  0  0  0  0  0  0  0
  -19.5065   -1.7130  -27.6032 C   0  0  0  0  0  0  0  0  0  0  0  0
  -18.8943   -1.8120  -30.1161 C   0  0  0  0  0  0  0  0  0  0  0  0
  -18.9219   -1.4099  -26.2353 C   0  0  0  0  0  0  0  0  0  0  0  0
  -30.4460    1.0480  -33.9894 O   0  0  0  0  0  0  0  0  0  0  0  0
  -26.4811    4.1935  -34.8573 O   0  0  0  0  0  0  0  0  0  0  0  0
  -26.2552   -0.9126  -32.9614 O   0  0  0  0  0  0  0  0  0  0  0  0
  -25.8660   -1.2136  -30.8595 O   0  0  0  0  0  0  0  0  0  0  0  0
  -25.6393    9.3066  -34.6050 O   0  0  0  0  0  0  0  0  0  0  0  0
  -24.9586    4.6944  -32.2265 O   0  0  0  0  0  0  0  0  0  0  0  0
  -23.2598   -0.2908  -30.0594 O   0  0  0  0  0  0  0  0  0  0  0  0
  -23.1175    4.9167  -36.4044 O   0  0  0  0  0  0  0  0  0  0  0  0
  -22.6201    6.2375  -29.9254 O   0  0  0  0  0  0  0  0  0  0  0  0
  -22.1372    0.6148  -31.5938 O   0  0  0  0  0  0  0  0  0  0  0  0
  -21.6164    4.4748  -27.5219 O   0  0  0  0  0  0  0  0  0  0  0  0
  -19.5275    0.4433  -30.4683 O   0  0  0  0  0  0  0  0  0  0  0  0
  -18.8389    0.7259  -25.1223 O   0  0  0  0  0  0  0  0  0  0  0  0
  -18.6242   -2.2636  -28.5344 O   0  0  0  0  0  0  0  0  0  0  0  0
  1  2  1  0
  2  3  1  0
  2  4  1  0
  3  5  1  0
  3 44  1  0
  5  6  1  0
  6  7  1  0
  6  9  1  0
  8 11  1  0
  9 14  1  0
  9 45  1  0
 10 11  1  0
 11 12  1  0
 11 17  1  0
 12 18  1  0
 13 20  1  0
 13 46  2  0
 13 47  1  0
 14 19  1  0
 15 22  1  0
 15 45  1  0
 16 17  1  0
 16 23  1  0
 17 48  1  0
 19 21  1  0
 19 24  1  0
 20 21  1  0
 20 26  1  0
 22 23  1  0
 22 51  1  0
 24 25  1  0
 25 28  1  0
 25 49  2  0
 26 50  2  0
 26 53  1  0
 27 32  1  0
 27 52  1  0
 28 29  1  0
 29 31  1  0
 29 52  1  0
 30 31  1  0
 30 33  1  0
 30 54  1  0
 31 37  1  0
 33 35  2  3
 34 38  1  0
 34 39  1  0
 35 36  1  0
 36 39  1  0
 36 40  1  0
 38 42  1  0
 38 55  1  0
 39 41  1  0
 40 43  1  0
 40 56  1  0
 41 43  1  0
 41 57  1  0
 42 57  1  0
M  END
$$$$

     RDKit          3D

 39 43  0  0  0  0  0  0  0  0999 V2000
  -31.9333    8.1914  -27.9599 C   0  0  0  0  0  0  0  0  0  0  0  0
  -30.8056    7.6317  -28.6025 C   0  0  0  0  0  0  0  0  0  0  0  0
  -30.6256    7.6603  -30.0098 C   0  0  0  0  0  0  0  0  0  0  0  0
  -29.9004    7.0108  -27.7562 C   0  0  0  0  0  0  0  0  0  0  0  0
  -29.4383    7.0830  -30.5321 C   0  0  0  0  0  0  0  0  0  0  0  0
  -28.7289    6.4341  -28.3007 C   0  0  0  0  0  0  0  0  0  0  0  0
  -28.4899    6.4355  -29.6933 C   0  0  0  0  0  0  0  0  0  0  0  0
  -27.9714    0.2246  -33.1246 C   0  0  0  0  0  0  0  0  0  0  0  0
  -27.8048   -1.0275  -32.5089 C   0  0  0  0  0  0  0  0  0  0  0  0
  -27.0176    5.0669  -31.3426 C   0  0  0  0  0  0  0  0  0  0  0  0
  -26.9188    1.1424  -33.2593 C   0  0  0  0  0  0  0  0  0  0  0  0
  -26.5780   -1.3096  -31.9360 C   0  0  0  0  0  0  0  0  0  0  0  0
  -25.5381   -0.4177  -32.0971 C   0  0  0  0  0  0  0  0  0  0  0  0
  -25.6884    0.7626  -32.7543 C   0  0  0  0  0  0  0  0  0  0  0  0
  -25.0337    4.0272  -32.5831 C   0  0  0  0  0  0  0  0  0  0  0  0
  -25.0833    6.2568  -31.5854 C   0  0  0  0  0  0  0  0  0  0  0  0
  -24.3121    1.4941  -32.8078 C   0  0  0  0  0  0  0  0  0  0  0  0
  -24.3264    2.7934  -31.9403 C   0  0  0  0  0  0  0  0  0  0  0  0
  -24.2008   -0.5999  -31.6970 C   0  0  0  0  0  0  0  0  0  0  0  0
  -23.7089   -1.6715  -31.0192 C   0  0  0  0  0  0  0  0  0  0  0  0
  -23.8649    1.3456  -35.3098 C   0  0  0  0  0  0  0  0  0  0  0  0
  -23.4256    0.4428  -32.1338 C   0  0  0  0  0  0  0  0  0  0  0  0
  -23.4190    2.0046  -36.6399 C   0  0  0  0  0  0  0  0  0  0  0  0
  -22.3396   -1.8547  -30.8593 C   0  0  0  0  0  0  0  0  0  0  0  0
  -22.0322    0.3058  -32.0632 C   0  0  0  0  0  0  0  0  0  0  0  0
  -22.0855    2.4638  -37.0695 C   0  0  0  0  0  0  0  0  0  0  0  0
  -21.7966   -2.9880  -30.2640 C   0  0  0  0  0  0  0  0  0  0  0  0
  -21.7850    2.4480  -38.4739 C   0  0  0  0  0  0  0  0  0  0  0  0
  -21.4863   -0.8398  -31.4019 C   0  0  0  0  0  0  0  0  0  0  0  0
  -20.4116   -3.1401  -30.1574 C   0  0  0  0  0  0  0  0  0  0  0  0
  -20.0484   -1.0289  -31.2955 C   0  0  0  0  0  0  0  0  0  0  0  0
  -19.5403   -2.1865  -30.6717 C   0  0  0  0  0  0  0  0  0  0  0  0
  -24.3914    0.2701  -35.3525 O   0  0  0  0  0  0  0  0  0  0  0  0
  -22.4546    1.6769  -39.3215 O   0  0  0  0  0  0  0  0  0  0  0  0
  -20.6137    2.8866  -38.9096 O   0  0  0  0  0  0  0  0  0  0  0  0
  -33.0525    8.7095  -27.5473 N   0  0  0  0  0  0  0  0  0  0  0  0
  -27.2611    5.9113  -30.1401 N   0  0  0  0  0  0  0  0  0  0  0  0
  -25.5578    4.9206  -31.5202 N   0  0  0  0  0  0  0  0  0  0  0  0
  -23.7094    1.9729  -34.1129 N   0  0  0  0  0  0  0  0  0  0  0  0
  1  2  1  0
  1 36  1  0
  2  3  2  0
  2  4  1  0
  3  5  1  0
  4  6  2  0
  5  7  2  0
  6  7  1  0
  7 37  1  0
  8  9  2  0
  8 11  1  0
  9 12  1  0
 10 37  1  0
 10 38  1  0
 11 14  2  0
 12 13  2  0
 13 14  1  0
 13 19  1  0
 14 17  1  0
 15 18  1  0
 15 38  1  0
 16 38  1  0
 17 18  1  0
 17 22  1  0
 17 39  1  0
 19 20  2  0
 19 22  1  0
 20 24  1  0
 21 23  1  0
 21 33  2  0
 21 39  1  0
 22 25  2  0
 23 26  1  0
 24 27  2  0
 24 29  1  0
 25 29  1  0
 26 28  1  0
 27 30  1  0
 28 34  2  0
 28 35  1  0
 29 31  2  0
 30 32  2  0
 31 32  1  0
M  END
$$$$

     RDKit          3D

 31 34  0  0  0  0  0  0  0  0999 V2000
  -27.4859    2.6751  -33.9587 C   0  0  0  0  0  0  0  0  0  0  0  0
  -27.0083    5.9896  -31.2476 C   0  0  0  0  0  0  0  0  0  0  0  0
  -26.8655    4.6686  -31.6891 C   0  0  0  0  0  0  0  0  0  0  0  0
  -26.4489    0.6881  -33.2610 C   0  0  0  0  0  0  0  0  0  0  0  0
  -26.3309    2.0572  -33.2959 C   0  0  0  0  0  0  0  0  0  0  0  0
  -25.7249    3.5407  -35.4244 C   0  0  0  0  0  0  0  0  0  0  0  0
  -25.8698    6.7814  -31.1004 C   0  0  0  0  0  0  0  0  0  0  0  0
  -25.4613    2.7100  -32.3988 C   0  0  0  0  0  0  0  0  0  0  0  0
  -25.5865    4.1336  -31.9752 C   0  0  0  0  0  0  0  0  0  0  0  0
  -24.5306    0.6519  -31.9627 C   0  0  0  0  0  0  0  0  0  0  0  0
  -24.4685    3.0038  -36.0012 C   0  0  0  0  0  0  0  0  0  0  0  0
  -24.4661    4.9259  -31.8525 C   0  0  0  0  0  0  0  0  0  0  0  0
  -24.6110    6.2616  -31.4003 C   0  0  0  0  0  0  0  0  0  0  0  0
  -24.3036    2.8925  -37.3889 C   0  0  0  0  0  0  0  0  0  0  0  0
  -23.5512   -0.1037  -31.2904 C   0  0  0  0  0  0  0  0  0  0  0  0
  -23.3922   -1.4476  -31.5935 C   0  0  0  0  0  0  0  0  0  0  0  0
  -23.3771    2.7142  -35.1813 C   0  0  0  0  0  0  0  0  0  0  0  0
  -23.1157    2.2234  -37.9208 C   0  0  0  0  0  0  0  0  0  0  0  0
  -22.8789    0.5504  -30.2795 C   0  0  0  0  0  0  0  0  0  0  0  0
  -22.4204   -2.1451  -30.8652 C   0  0  0  0  0  0  0  0  0  0  0  0
  -22.2212    2.0876  -35.6688 C   0  0  0  0  0  0  0  0  0  0  0  0
  -22.0931    1.7655  -37.0141 C   0  0  0  0  0  0  0  0  0  0  0  0
  -21.9023   -0.1444  -29.6012 C   0  0  0  0  0  0  0  0  0  0  0  0
  -21.6729   -1.4579  -29.8641 C   0  0  0  0  0  0  0  0  0  0  0  0
  -20.3625   -3.3458  -29.4423 O   0  0  0  0  0  0  0  0  0  0  0  0
  -20.1469   -1.5919  -28.1503 O   0  0  0  0  0  0  0  0  0  0  0  0
  -26.6020    2.9242  -34.7531 N   0  0  0  0  0  0  0  0  0  0  0  0
  -25.4160   -0.0194  -32.7641 N   0  0  0  0  0  0  0  0  0  0  0  0
  -24.5204    1.9714  -31.8036 N   0  0  0  0  0  0  0  0  0  0  0  0
  -20.6845   -2.1762  -29.1654 N   0  0  0  0  0  0  0  0  0  0  0  0
  -25.8866    8.3473  -30.3516 Cl  0  0  0  0  0  0  0  0  0  0  0  0
  1  5  1  0
  1 27  1  0
  2  3  1  0
  2  7  2  0
  3  9  1  0
  4  5  1  0
  4 28  1  0
  5  8  1  0
  6 11  1  0
  6 27  1  0
  7 13  1  0
  7 31  1  0
  8  9  1  0
  8 29  1  0
  9 12  2  0
 10 15  1  0
 10 28  1  0
 10 29  2  0
 11 14  2  0
 11 17  1  0
 12 13  1  0
 14 18  1  0
 15 16  2  0
 15 19  1  0
 16 20  1  0
 17 21  2  0
 18 22  2  0
 19 23  2  0
 20 24  2  0
 21 22  1  0
 23 24  1  0
 24 30  1  0
 25 30  1  0
 26 30  1  0
M  END
$$$$

     RDKit          3D

 47 54  0  0  0  0  0  0  0  0999 V2000
  -29.6519    3.0814  -36.5147 C   0  0  0  0  0  0  0  0  0  0  0  0
  -29.3043   -0.7955  -33.0116 C   0  0  0  0  0  0  0  0  0  0  0  0
  -29.3135    3.9483  -37.6187 C   0  0  0  0  0  0  0  0  0  0  0  0
  -28.8643    1.3631  -34.8862 C   0  0  0  0  0  0  0  0  0  0  0  0
  -28.5957    2.3771  -35.8646 C   0  0  0  0  0  0  0  0  0  0  0  0
  -27.9845    4.1135  -38.0373 C   0  0  0  0  0  0  0  0  0  0  0  0
  -27.7535    0.7499  -34.2381 C   0  0  0  0  0  0  0  0  0  0  0  0
  -27.2523    2.6533  -36.2328 C   0  0  0  0  0  0  0  0  0  0  0  0
  -26.8460   -0.5671  -32.4020 C   0  0  0  0  0  0  0  0  0  0  0  0
  -26.9459    3.5471  -37.2928 C   0  0  0  0  0  0  0  0  0  0  0  0
  -26.4338    1.1977  -34.5591 C   0  0  0  0  0  0  0  0  0  0  0  0
  -25.3707    0.7971  -33.7363 C   0  0  0  0  0  0  0  0  0  0  0  0
  -25.2973    2.1039  -30.6338 C   0  0  0  0  0  0  0  0  0  0  0  0
  -25.3948    6.4833  -34.4373 C   0  0  0  0  0  0  0  0  0  0  0  0
  -25.0113    5.3085  -33.5137 C   0  0  0  0  0  0  0  0  0  0  0  0
  -24.8351    3.2466  -31.4246 C   0  0  0  0  0  0  0  0  0  0  0  0
  -24.8594    4.9311  -37.6405 C   0  0  0  0  0  0  0  0  0  0  0  0
  -24.4927   -0.0247  -31.7183 C   0  0  0  0  0  0  0  0  0  0  0  0
  -24.5653    5.3958  -36.2338 C   0  0  0  0  0  0  0  0  0  0  0  0
  -24.3253    0.9922  -30.7389 C   0  0  0  0  0  0  0  0  0  0  0  0
  -24.1904    5.5036  -31.0818 C   0  0  0  0  0  0  0  0  0  0  0  0
  -24.0190    7.0931  -34.5802 C   0  0  0  0  0  0  0  0  0  0  0  0
  -23.7517    5.7530  -32.5550 C   0  0  0  0  0  0  0  0  0  0  0  0
  -23.5368   -1.0427  -31.8215 C   0  0  0  0  0  0  0  0  0  0  0  0
  -23.2313    1.0130  -29.8792 C   0  0  0  0  0  0  0  0  0  0  0  0
  -23.2345    5.9698  -35.4496 C   0  0  0  0  0  0  0  0  0  0  0  0
  -22.4427   -1.0331  -30.9313 C   0  0  0  0  0  0  0  0  0  0  0  0
  -22.2778   -0.0177  -29.9501 C   0  0  0  0  0  0  0  0  0  0  0  0
  -22.4336    5.2438  -32.9384 C   0  0  0  0  0  0  0  0  0  0  0  0
  -22.2082    4.3227  -27.1638 C   0  0  0  0  0  0  0  0  0  0  0  0
  -22.0601    5.4570  -34.4114 C   0  0  0  0  0  0  0  0  0  0  0  0
  -21.8612    2.9533  -26.8176 C   0  0  0  0  0  0  0  0  0  0  0  0
  -21.8003    4.4783  -28.5524 C   0  0  0  0  0  0  0  0  0  0  0  0
  -21.3541    2.3010  -27.9759 C   0  0  0  0  0  0  0  0  0  0  0  0
  -21.1792   -0.0782  -28.9337 C   0  0  0  0  0  0  0  0  0  0  0  0
  -20.9376    0.9125  -27.9376 C   0  0  0  0  0  0  0  0  0  0  0  0
  -20.4998   -1.3303  -28.7079 C   0  0  0  0  0  0  0  0  0  0  0  0
  -26.9851   -1.3741  -31.4582 O   0  0  0  0  0  0  0  0  0  0  0  0
  -25.5832    3.6737  -37.5869 O   0  0  0  0  0  0  0  0  0  0  0  0
  -24.2938    4.2378  -30.6469 O   0  0  0  0  0  0  0  0  0  0  0  0
  -24.4611    6.4132  -30.3231 O   0  0  0  0  0  0  0  0  0  0  0  0
  -20.0831    0.4982  -27.0274 O   0  0  0  0  0  0  0  0  0  0  0  0
  -27.9474   -0.1949  -33.2040 N   0  0  0  0  0  0  0  0  0  0  0  0
  -26.1911    2.0779  -35.5847 N   0  0  0  0  0  0  0  0  0  0  0  0
  -25.6039    0.0617  -32.5975 N   0  0  0  0  0  0  0  0  0  0  0  0
  -19.7567   -0.9971  -27.3579 N   0  0  0  0  0  0  0  0  0  0  0  0
  -21.0172    3.3028  -29.1929 S   0  0  0  0  0  0  0  0  0  0  0  0
  1  3  2  0
  1  5  1  0
  2 43  1  0
  3  6  1  0
  4  5  1  0
  4  7  2  0
  5  8  1  0
  6 10  2  0
  7 11  1  0
  7 43  1  0
  8 10  1  0
  8 44  2  0
  9 38  2  0
  9 43  1  0
  9 45  1  0
 10 39  1  0
 11 12  2  0
 11 44  1  0
 12 45  1  0
 13 16  1  0
 13 20  1  0
 14 15  1  0
 14 22  1  0
 15 23  1  0
 16 40  1  0
 17 19  1  0
 17 39  1  0
 18 20  2  0
 18 24  1  0
 18 45  1  0
 19 26  1  0
 20 25  1  0
 21 23  1  0
 21 40  1  0
 21 41  2  0
 22 26  1  0
 23 29  1  0
 24 27  2  0
 25 28  2  0
 26 31  1  0
 27 28  1  0
 28 35  1  0
 29 31  1  0
 30 32  1  0
 30 33  1  0
 32 34  1  0
 33 47  1  0
 34 36  1  0
 34 47  1  0
 35 36  1  0
 35 37  1  0
 36 42  1  0
 37 46  1  0
 42 46  1  0
M  END
$$$$

     RDKit          3D

 43 48  0  0  0  0  0  0  0  0999 V2000
  -29.7661   -0.8386  -35.1480 C   0  0  0  0  0  0  0  0  0  0  0  0
  -29.8317    0.5329  -35.4259 C   0  0  0  0  0  0  0  0  0  0  0  0
  -28.9109   -1.3587  -34.1786 C   0  0  0  0  0  0  0  0  0  0  0  0
  -28.9567    1.3944  -34.7579 C   0  0  0  0  0  0  0  0  0  0  0  0
  -28.5437    6.7267  -30.3913 C   0  0  0  0  0  0  0  0  0  0  0  0
  -28.2108    4.6926  -31.6118 C   0  0  0  0  0  0  0  0  0  0  0  0
  -28.0523   -0.5344  -33.5295 C   0  0  0  0  0  0  0  0  0  0  0  0
  -28.0455    0.8317  -33.8327 C   0  0  0  0  0  0  0  0  0  0  0  0
  -28.0770    2.4929  -32.4484 C   0  0  0  0  0  0  0  0  0  0  0  0
  -27.9568    7.8095  -29.7305 C   0  0  0  0  0  0  0  0  0  0  0  0
  -27.6901    5.8145  -31.0127 C   0  0  0  0  0  0  0  0  0  0  0  0
  -27.4055    3.7246  -32.1164 C   0  0  0  0  0  0  0  0  0  0  0  0
  -26.5593    7.9755  -29.6494 C   0  0  0  0  0  0  0  0  0  0  0  0
  -26.2480    5.9788  -30.9620 C   0  0  0  0  0  0  0  0  0  0  0  0
  -25.9969    3.9003  -32.2125 C   0  0  0  0  0  0  0  0  0  0  0  0
  -25.8436    1.5253  -32.9447 C   0  0  0  0  0  0  0  0  0  0  0  0
  -25.7257    7.1120  -30.3236 C   0  0  0  0  0  0  0  0  0  0  0  0
  -25.2063    2.9110  -32.9670 C   0  0  0  0  0  0  0  0  0  0  0  0
  -25.3899    5.0166  -31.5586 C   0  0  0  0  0  0  0  0  0  0  0  0
  -23.2359    3.1762  -30.3567 C   0  0  0  0  0  0  0  0  0  0  0  0
  -23.0164    4.5900  -30.8541 C   0  0  0  0  0  0  0  0  0  0  0  0
  -22.4473   -2.1203  -30.7205 C   0  0  0  0  0  0  0  0  0  0  0  0
  -21.9665   -0.8184  -30.3982 C   0  0  0  0  0  0  0  0  0  0  0  0
  -21.9455    2.6839  -29.8139 C   0  0  0  0  0  0  0  0  0  0  0  0
  -21.7739    4.8096  -31.7180 C   0  0  0  0  0  0  0  0  0  0  0  0
  -21.5908   -3.2478  -30.7623 C   0  0  0  0  0  0  0  0  0  0  0  0
  -20.8204    3.7141  -31.8192 C   0  0  0  0  0  0  0  0  0  0  0  0
  -20.5714   -0.6888  -30.1641 C   0  0  0  0  0  0  0  0  0  0  0  0
  -20.2191   -3.0419  -30.5761 C   0  0  0  0  0  0  0  0  0  0  0  0
  -19.7367   -5.5771  -30.3440 C   0  0  0  0  0  0  0  0  0  0  0  0
  -19.7150   -1.7629  -30.2778 C   0  0  0  0  0  0  0  0  0  0  0  0
  -32.2025   -1.3675  -35.7104 O   0  0  0  0  0  0  0  0  0  0  0  0
  -30.6712   -3.2692  -35.4143 O   0  0  0  0  0  0  0  0  0  0  0  0
  -30.6941   -2.0218  -37.4665 O   0  0  0  0  0  0  0  0  0  0  0  0
  -19.4504    1.1770  -32.1886 O   0  0  0  0  0  0  0  0  0  0  0  0
  -18.4461    2.3310  -30.3383 O   0  0  0  0  0  0  0  0  0  0  0  0
  -27.2407    1.6858  -33.1366 N   0  0  0  0  0  0  0  0  0  0  0  0
  -24.0764    5.1820  -31.5218 N   0  0  0  0  0  0  0  0  0  0  0  0
  -20.9738    2.5715  -30.8888 N   0  0  0  0  0  0  0  0  0  0  0  0
  -19.9901    0.5527  -29.7909 N   0  0  0  0  0  0  0  0  0  0  0  0
  -19.3240   -4.0977  -30.6011 N   0  0  0  0  0  0  0  0  0  0  0  0
  -30.9045   -1.9014  -35.9703 S   0  0  0  0  0  0  0  0  0  0  0  0
  -19.6225    1.6631  -30.8443 S   0  0  0  0  0  0  0  0  0  0  0  0
  1  2  2  0
  1  3  1  0
  1 42  1  0
  2  4  1  0
  3  7  2  0
  4  8  2  0
  5 10  1  0
  5 11  2  0
  6 11  1  0
  6 12  2  0
  7  8  1  0
  8 37  1  0
  9 12  1  0
  9 37  1  0
 10 13  1  0
 11 14  1  0
 12 15  1  0
 13 17  2  0
 14 17  1  0
 14 19  1  0
 15 18  1  0
 15 19  2  0
 16 18  1  0
 16 37  1  0
 19 38  1  0
 20 21  1  0
 20 24  1  0
 21 25  1  0
 21 38  1  0
 22 23  2  0
 22 26  1  0
 23 28  1  0
 24 39  1  0
 25 27  2  0
 26 29  2  0
 27 39  1  0
 28 31  2  0
 28 40  1  0
 29 31  1  0
 29 41  1  0
 30 41  1  0
 32 42  1  0
 33 42  1  0
 34 42  1  0
 35 43  1  0
 36 43  1  0
 39 43  1  0
 40 43  1  0
M  END
$$$$

     RDKit          3D

 50 53  0  0  0  0  0  0  0  0999 V2000
  -30.3301    7.7498  -29.9105 C   0  0  0  0  0  0  0  0  0  0  0  0
  -30.0634    6.0863  -26.4466 C   0  0  0  0  0  0  0  0  0  0  0  0
  -29.6959    6.7817  -27.7243 C   0  0  0  0  0  0  0  0  0  0  0  0
  -29.0927    7.2124  -30.5710 C   0  0  0  0  0  0  0  0  0  0  0  0
  -28.6380    6.0689  -28.3941 C   0  0  0  0  0  0  0  0  0  0  0  0
  -27.1297    5.7276  -30.3087 C   0  0  0  0  0  0  0  0  0  0  0  0
  -26.7146    3.1010  -33.3505 C   0  0  0  0  0  0  0  0  0  0  0  0
  -26.9235    4.4159  -31.1241 C   0  0  0  0  0  0  0  0  0  0  0  0
  -26.7661    4.5480  -32.6972 C   0  0  0  0  0  0  0  0  0  0  0  0
  -26.6169    0.6756  -32.6021 C   0  0  0  0  0  0  0  0  0  0  0  0
  -26.0919    0.0447  -33.8874 C   0  0  0  0  0  0  0  0  0  0  0  0
  -25.8941    0.1215  -31.3976 C   0  0  0  0  0  0  0  0  0  0  0  0
  -25.7060    3.6037  -30.5979 C   0  0  0  0  0  0  0  0  0  0  0  0
  -25.3409    2.4060  -31.4644 C   0  0  0  0  0  0  0  0  0  0  0  0
  -25.1203    1.1341  -30.6351 C   0  0  0  0  0  0  0  0  0  0  0  0
  -24.9901    5.2657  -36.6972 C   0  0  0  0  0  0  0  0  0  0  0  0
  -24.8749    4.2298  -38.9247 C   0  0  0  0  0  0  0  0  0  0  0  0
  -24.2646    3.4150  -39.9175 C   0  0  0  0  0  0  0  0  0  0  0  0
  -24.2338    4.4340  -37.6571 C   0  0  0  0  0  0  0  0  0  0  0  0
  -23.5757    0.6941  -30.2337 C   0  0  0  0  0  0  0  0  0  0  0  0
  -23.0790    2.6944  -39.6367 C   0  0  0  0  0  0  0  0  0  0  0  0
  -22.9669    3.8137  -37.3507 C   0  0  0  0  0  0  0  0  0  0  0  0
  -22.7252    5.9098  -31.6810 C   0  0  0  0  0  0  0  0  0  0  0  0
  -22.5476    1.7228  -30.6274 C   0  0  0  0  0  0  0  0  0  0  0  0
  -22.6737    4.5890  -34.8014 C   0  0  0  0  0  0  0  0  0  0  0  0
  -22.4159    2.8400  -29.6798 C   0  0  0  0  0  0  0  0  0  0  0  0
  -22.3855    2.9532  -38.4146 C   0  0  0  0  0  0  0  0  0  0  0  0
  -22.1006   -1.5986  -29.9184 C   0  0  0  0  0  0  0  0  0  0  0  0
  -22.1966    4.0448  -36.1097 C   0  0  0  0  0  0  0  0  0  0  0  0
  -22.0115    4.2227  -33.5648 C   0  0  0  0  0  0  0  0  0  0  0  0
  -21.9617    4.8478  -32.2881 C   0  0  0  0  0  0  0  0  0  0  0  0
  -21.5671    1.5624  -31.6884 C   0  0  0  0  0  0  0  0  0  0  0  0
  -21.5237    3.9622  -30.0080 C   0  0  0  0  0  0  0  0  0  0  0  0
  -20.8752   -1.1408  -29.1554 C   0  0  0  0  0  0  0  0  0  0  0  0
  -20.8087    2.8573  -32.1574 C   0  0  0  0  0  0  0  0  0  0  0  0
  -19.2694    2.6801  -32.0944 C   0  0  0  0  0  0  0  0  0  0  0  0
  -27.7874    2.7844  -34.0825 O   0  0  0  0  0  0  0  0  0  0  0  0
  -26.3651    2.1195  -32.4123 O   0  0  0  0  0  0  0  0  0  0  0  0
  -26.2043   -1.0550  -30.8725 O   0  0  0  0  0  0  0  0  0  0  0  0
  -26.2026    6.1290  -29.5689 O   0  0  0  0  0  0  0  0  0  0  0  0
  -25.8376    5.1997  -35.8646 O   0  0  0  0  0  0  0  0  0  0  0  0
  -22.7776   -0.7225  -30.6291 O   0  0  0  0  0  0  0  0  0  0  0  0
  -22.6079   -2.7415  -29.6871 O   0  0  0  0  0  0  0  0  0  0  0  0
  -22.5132    2.4800  -28.4172 O   0  0  0  0  0  0  0  0  0  0  0  0
  -21.1811    2.3734  -38.3340 O   0  0  0  0  0  0  0  0  0  0  0  0
  -21.1677    3.0938  -33.5447 O   0  0  0  0  0  0  0  0  0  0  0  0
  -21.1952    4.0710  -31.4182 O   0  0  0  0  0  0  0  0  0  0  0  0
  -30.5255    7.5282  -28.4938 N   0  0  0  0  0  0  0  0  0  0  0  0
  -28.4944    6.0758  -29.8699 N   0  0  0  0  0  0  0  0  0  0  0  0
  -22.6368    1.6250  -40.7636 N   0  0  0  0  0  0  0  0  0  0  0  0
  1  4  1  0
  1 48  2  0
  2  3  1  0
  3  5  1  0
  3 48  1  0
  4 49  1  0
  5 49  1  0
  6  8  1  0
  6 40  2  0
  6 49  1  0
  7  9  1  0
  7 37  1  0
  7 38  1  0
  8  9  1  0
  8 13  1  0
 10 11  1  0
 10 12  1  0
 12 15  1  0
 12 39  1  0
 13 14  1  0
 14 15  1  0
 14 38  1  0
 15 20  1  0
 16 19  1  0
 16 41  2  0
 17 18  2  0
 17 19  1  0
 18 21  1  0
 19 22  2  0
 20 24  1  0
 20 42  1  0
 21 27  2  0
 21 50  1  0
 22 27  1  0
 22 29  1  0
 23 31  1  0
 24 26  1  0
 24 32  1  0
 25 29  1  0
 25 30  1  0
 26 33  1  0
 26 44  1  0
 27 45  1  0
 28 34  1  0
 28 42  1  0
 28 43  2  0
 30 31  2  3
 30 46  1  0
 31 47  1  0
 32 35  1  0
 33 47  1  0
 35 36  1  0
 35 46  1  0
M  END
$$$$

     RDKit          3D

 42 46  0  0  0  0  0  0  0  0999 V2000
  -32.6363    2.6295  -33.9783 C   0  0  0  0  0  0  0  0  0  0  0  0
  -32.4360    0.1954  -33.8340 C   0  0  0  0  0  0  0  0  0  0  0  0
  -32.0464    3.7185  -33.5083 C   0  0  0  0  0  0  0  0  0  0  0  0
  -31.8207    1.4347  -33.8634 C   0  0  0  0  0  0  0  0  0  0  0  0
  -29.5615    0.9323  -34.5367 C   0  0  0  0  0  0  0  0  0  0  0  0
  -28.1108    0.9008  -34.1095 C   0  0  0  0  0  0  0  0  0  0  0  0
  -27.9234   -0.1515  -33.2078 C   0  0  0  0  0  0  0  0  0  0  0  0
  -27.0172    1.6144  -34.5947 C   0  0  0  0  0  0  0  0  0  0  0  0
  -26.7465   -0.4338  -32.7456 C   0  0  0  0  0  0  0  0  0  0  0  0
  -25.7351    1.2794  -34.0904 C   0  0  0  0  0  0  0  0  0  0  0  0
  -25.6559    0.2563  -33.1481 C   0  0  0  0  0  0  0  0  0  0  0  0
  -24.4956    1.9546  -34.5121 C   0  0  0  0  0  0  0  0  0  0  0  0
  -24.3581    3.3989  -34.1515 C   0  0  0  0  0  0  0  0  0  0  0  0
  -22.9564    3.8745  -33.6724 C   0  0  0  0  0  0  0  0  0  0  0  0
  -22.9382   -1.8326  -30.9482 C   0  0  0  0  0  0  0  0  0  0  0  0
  -22.2100    4.4958  -34.8528 C   0  0  0  0  0  0  0  0  0  0  0  0
  -22.2147    5.8623  -35.1025 C   0  0  0  0  0  0  0  0  0  0  0  0
  -22.0396    0.4094  -31.7268 C   0  0  0  0  0  0  0  0  0  0  0  0
  -21.9169   -0.8254  -31.1662 C   0  0  0  0  0  0  0  0  0  0  0  0
  -21.4946    3.6900  -35.7345 C   0  0  0  0  0  0  0  0  0  0  0  0
  -21.4917    6.4299  -36.2546 C   0  0  0  0  0  0  0  0  0  0  0  0
  -21.4412    7.8216  -36.5432 C   0  0  0  0  0  0  0  0  0  0  0  0
  -21.1747    2.5665  -32.5146 C   0  0  0  0  0  0  0  0  0  0  0  0
  -20.7644   -2.7219  -30.4051 C   0  0  0  0  0  0  0  0  0  0  0  0
  -20.9508    1.2879  -31.8064 C   0  0  0  0  0  0  0  0  0  0  0  0
  -20.8199    4.1333  -36.8246 C   0  0  0  0  0  0  0  0  0  0  0  0
  -20.8290    5.5289  -37.1083 C   0  0  0  0  0  0  0  0  0  0  0  0
  -20.7230    8.2793  -37.6681 C   0  0  0  0  0  0  0  0  0  0  0  0
  -20.6995   -1.2891  -30.7276 C   0  0  0  0  0  0  0  0  0  0  0  0
  -20.1462    6.0112  -38.2565 C   0  0  0  0  0  0  0  0  0  0  0  0
  -20.1116    7.3803  -38.5396 C   0  0  0  0  0  0  0  0  0  0  0  0
  -19.5405   -0.4347  -30.7814 C   0  0  0  0  0  0  0  0  0  0  0  0
  -19.6972    0.8601  -31.3026 C   0  0  0  0  0  0  0  0  0  0  0  0
  -29.8310    0.2063  -35.4260 O   0  0  0  0  0  0  0  0  0  0  0  0
  -24.1734   -1.5490  -30.8916 O   0  0  0  0  0  0  0  0  0  0  0  0
  -23.6527    1.3634  -35.1573 O   0  0  0  0  0  0  0  0  0  0  0  0
  -22.2061   -2.9401  -30.5735 O   0  0  0  0  0  0  0  0  0  0  0  0
  -20.6471    9.6431  -37.9287 O   0  0  0  0  0  0  0  0  0  0  0  0
  -20.2683    3.4289  -32.5578 O   0  0  0  0  0  0  0  0  0  0  0  0
  -18.3374   -0.9637  -30.3864 O   0  0  0  0  0  0  0  0  0  0  0  0
  -30.4331    1.6683  -33.7890 N   0  0  0  0  0  0  0  0  0  0  0  0
  -22.4000    2.7212  -33.0017 N   0  0  0  0  0  0  0  0  0  0  0  0
  1  3  1  0
  1  4  1  0
  2  4  1  0
  4 41  1  0
  5  6  1  0
  5 34  2  0
  5 41  1  0
  6  7  2  0
  6  8  1  0
  7  9  1  0
  8 10  2  0
  9 11  2  0
 10 11  1  0
 10 12  1  0
 12 13  1  0
 12 36  2  0
 13 14  1  0
 14 16  1  0
 14 42  1  0
 15 19  1  0
 15 35  2  0
 15 37  1  0
 16 17  2  0
 16 20  1  0
 17 21  1  0
 18 19  2  0
 18 25  1  0
 19 29  1  0
 20 26  2  0
 21 22  2  0
 21 27  1  0
 22 28  1  0
 23 25  1  0
 23 39  2  0
 23 42  1  0
 24 29  1  0
 24 37  1  0
 25 33  1  0
 26 27  1  0
 27 30  2  0
 28 31  2  0
 28 38  1  0
 29 32  1  0
 30 31  1  0
 32 33  2  0
 32 40  1  0
M  END
$$$$

     RDKit          3D

 54 57  0  0  0  0  0  0  0  0999 V2000
  -31.3509   -2.6912  -37.2090 C   0  0  0  0  0  0  0  0  0  0  0  0
  -30.5431   -1.0771  -35.4815 C   0  0  0  0  0  0  0  0  0  0  0  0
  -30.4023    2.6570  -37.1228 C   0  0  0  0  0  0  0  0  0  0  0  0
  -29.5701    0.6095  -33.9525 C   0  0  0  0  0  0  0  0  0  0  0  0
  -29.5249    3.6881  -33.6051 C   0  0  0  0  0  0  0  0  0  0  0  0
  -29.4059   -0.6764  -34.6561 C   0  0  0  0  0  0  0  0  0  0  0  0
  -29.4001    3.3762  -35.0309 C   0  0  0  0  0  0  0  0  0  0  0  0
  -28.7730   -1.7199  -33.8148 C   0  0  0  0  0  0  0  0  0  0  0  0
  -28.9391    2.3517  -37.4424 C   0  0  0  0  0  0  0  0  0  0  0  0
  -28.3474    1.4015  -33.4987 C   0  0  0  0  0  0  0  0  0  0  0  0
  -28.4324    2.8156  -32.9133 C   0  0  0  0  0  0  0  0  0  0  0  0
  -27.8876    3.0454  -37.9269 C   0  0  0  0  0  0  0  0  0  0  0  0
  -27.4238    4.5473  -36.2352 C   0  0  0  0  0  0  0  0  0  0  0  0
  -26.2389    5.4145  -36.6401 C   0  0  0  0  0  0  0  0  0  0  0  0
  -25.7154    3.0038  -36.9885 C   0  0  0  0  0  0  0  0  0  0  0  0
  -25.3032    0.0957  -34.1692 C   0  0  0  0  0  0  0  0  0  0  0  0
  -25.3432    2.3535  -35.7253 C   0  0  0  0  0  0  0  0  0  0  0  0
  -25.3370    4.4007  -37.4573 C   0  0  0  0  0  0  0  0  0  0  0  0
  -25.1782    5.8595  -35.6011 C   0  0  0  0  0  0  0  0  0  0  0  0
  -24.8879   -0.3408  -31.7124 C   0  0  0  0  0  0  0  0  0  0  0  0
  -24.5094    2.2010  -35.0787 C   0  0  0  0  0  0  0  0  0  0  0  0
  -24.2894    1.1448  -34.1719 C   0  0  0  0  0  0  0  0  0  0  0  0
  -24.1013    6.2091  -33.3507 C   0  0  0  0  0  0  0  0  0  0  0  0
  -24.1907    6.8364  -36.2302 C   0  0  0  0  0  0  0  0  0  0  0  0
  -23.6285    2.5990  -30.1561 C   0  0  0  0  0  0  0  0  0  0  0  0
  -23.5805    4.1041  -30.4028 C   0  0  0  0  0  0  0  0  0  0  0  0
  -23.3969   -0.6895  -31.3922 C   0  0  0  0  0  0  0  0  0  0  0  0
  -23.1852    7.3028  -35.1616 C   0  0  0  0  0  0  0  0  0  0  0  0
  -22.8955    0.3510  -30.3650 C   0  0  0  0  0  0  0  0  0  0  0  0
  -22.8456    1.7327  -31.1123 C   0  0  0  0  0  0  0  0  0  0  0  0
  -22.8329    4.6537  -31.6330 C   0  0  0  0  0  0  0  0  0  0  0  0
  -22.0552    3.5594  -32.4101 C   0  0  0  0  0  0  0  0  0  0  0  0
  -21.4635    0.0338  -29.8635 C   0  0  0  0  0  0  0  0  0  0  0  0
  -21.5899    2.2918  -31.6011 C   0  0  0  0  0  0  0  0  0  0  0  0
  -21.3029   -1.0542  -28.8454 C   0  0  0  0  0  0  0  0  0  0  0  0
  -20.6658   -0.0551  -31.1049 C   0  0  0  0  0  0  0  0  0  0  0  0
  -19.7688   -1.2090  -28.5998 C   0  0  0  0  0  0  0  0  0  0  0  0
  -19.5346   -1.0039  -31.0801 C   0  0  0  0  0  0  0  0  0  0  0  0
  -19.1987   -1.7939  -29.8820 C   0  0  0  0  0  0  0  0  0  0  0  0
  -18.9020   -1.6886  -25.1353 C   0  0  0  0  0  0  0  0  0  0  0  0
  -18.3572   -1.7710  -26.6101 C   0  0  0  0  0  0  0  0  0  0  0  0
  -31.4594   -0.2969  -35.7278 O   0  0  0  0  0  0  0  0  0  0  0  0
  -30.5254    3.4340  -35.8762 O   0  0  0  0  0  0  0  0  0  0  0  0
  -27.0688    3.2911  -36.8711 O   0  0  0  0  0  0  0  0  0  0  0  0
  -25.5943   -0.1768  -30.5867 O   0  0  0  0  0  0  0  0  0  0  0  0
  -25.4108   -0.4860  -32.8687 O   0  0  0  0  0  0  0  0  0  0  0  0
  -24.9142    4.5284  -30.2142 O   0  0  0  0  0  0  0  0  0  0  0  0
  -23.8957    5.2138  -32.4680 O   0  0  0  0  0  0  0  0  0  0  0  0
  -23.6704    2.7823  -35.8177 O   0  0  0  0  0  0  0  0  0  0  0  0
  -20.7963    0.9251  -32.0614 O   0  0  0  0  0  0  0  0  0  0  0  0
  -20.5986    4.2901  -32.4217 O   0  0  0  0  0  0  0  0  0  0  0  0
  -30.5361   -2.3480  -36.0120 N   0  0  0  0  0  0  0  0  0  0  0  0
  -23.1824    6.8930  -33.9785 N   0  0  0  0  0  0  0  0  0  0  0  0
  -19.5571   -1.9338  -27.3942 N   0  0  0  0  0  0  0  0  0  0  0  0
  1 52  1  0
  2  6  1  0
  2 42  2  0
  2 52  1  0
  3  9  1  0
  3 43  1  0
  4  6  1  0
  4 10  2  3
  5  7  1  0
  5 11  1  0
  6  8  1  0
  7 43  1  0
  9 12  1  0
 10 11  1  0
 12 44  1  0
 13 14  1  0
 14 18  1  0
 14 19  1  0
 15 17  1  0
 15 18  1  0
 15 44  1  0
 16 22  1  0
 16 46  1  0
 17 21  1  0
 19 24  1  0
 20 27  1  0
 20 45  2  0
 20 46  1  0
 21 22  1  0
 21 49  2  0
 23 48  1  0
 23 53  1  0
 24 28  1  0
 25 26  1  0
 25 30  1  0
 26 31  1  0
 26 47  1  0
 27 29  1  0
 28 53  2  3
 29 30  1  0
 29 33  1  0
 30 34  1  0
 31 32  1  0
 31 48  1  0
 32 34  1  0
 32 51  1  0
 33 35  1  0
 33 36  1  0
 34 50  1  0
 35 37  1  0
 36 38  2  0
 36 50  1  0
 37 39  1  0
 37 54  1  0
 38 39  1  0
 40 41  1  0
 41 54  1  0
M  END
$$$$

     RDKit          3D

 39 43  0  0  0  0  0  0  0  0999 V2000
  -29.2017    6.3031  -32.1190 C   0  0  0  0  0  0  0  0  0  0  0  0
  -28.6189    6.2024  -33.5104 C   0  0  0  0  0  0  0  0  0  0  0  0
  -27.9839    6.1005  -31.4406 C   0  0  0  0  0  0  0  0  0  0  0  0
  -27.5336    2.2600  -33.3951 C   0  0  0  0  0  0  0  0  0  0  0  0
  -26.9636    1.2717  -34.1820 C   0  0  0  0  0  0  0  0  0  0  0  0
  -27.1083    5.0525  -32.1031 C   0  0  0  0  0  0  0  0  0  0  0  0
  -26.9153    2.6525  -32.2093 C   0  0  0  0  0  0  0  0  0  0  0  0
  -25.8001    0.5912  -33.7809 C   0  0  0  0  0  0  0  0  0  0  0  0
  -25.7214    2.0348  -31.7817 C   0  0  0  0  0  0  0  0  0  0  0  0
  -25.6193    5.3998  -31.9939 C   0  0  0  0  0  0  0  0  0  0  0  0
  -25.3181   -0.5452  -34.6032 C   0  0  0  0  0  0  0  0  0  0  0  0
  -25.1769    0.9647  -32.5615 C   0  0  0  0  0  0  0  0  0  0  0  0
  -25.0725    3.9408  -39.1034 C   0  0  0  0  0  0  0  0  0  0  0  0
  -25.1167    4.6789  -36.0810 C   0  0  0  0  0  0  0  0  0  0  0  0
  -25.1580    6.5048  -32.9035 C   0  0  0  0  0  0  0  0  0  0  0  0
  -24.8371    3.5310  -36.7892 C   0  0  0  0  0  0  0  0  0  0  0  0
  -24.5595    4.9267  -34.8114 C   0  0  0  0  0  0  0  0  0  0  0  0
  -24.1713   -0.8575  -31.1721 C   0  0  0  0  0  0  0  0  0  0  0  0
  -23.9748    0.2823  -32.0040 C   0  0  0  0  0  0  0  0  0  0  0  0
  -23.9082    2.6078  -36.3342 C   0  0  0  0  0  0  0  0  0  0  0  0
  -23.8127    7.0004  -32.5032 C   0  0  0  0  0  0  0  0  0  0  0  0
  -23.6027    3.9941  -34.3097 C   0  0  0  0  0  0  0  0  0  0  0  0
  -23.2424    2.8269  -35.1106 C   0  0  0  0  0  0  0  0  0  0  0  0
  -23.0141   -1.5688  -30.6602 C   0  0  0  0  0  0  0  0  0  0  0  0
  -22.6583    0.7142  -32.2357 C   0  0  0  0  0  0  0  0  0  0  0  0
  -22.3094    1.7705  -34.5781 C   0  0  0  0  0  0  0  0  0  0  0  0
  -22.3130    1.8422  -33.1151 C   0  0  0  0  0  0  0  0  0  0  0  0
  -21.7063   -1.0652  -30.9606 C   0  0  0  0  0  0  0  0  0  0  0  0
  -21.5320    0.1271  -31.6950 C   0  0  0  0  0  0  0  0  0  0  0  0
  -28.1234    5.8265  -30.0123 O   0  0  0  0  0  0  0  0  0  0  0  0
  -27.9752    7.3465  -33.9100 O   0  0  0  0  0  0  0  0  0  0  0  0
  -27.6054    5.0925  -33.4062 O   0  0  0  0  0  0  0  0  0  0  0  0
  -27.3710    3.7466  -31.5137 O   0  0  0  0  0  0  0  0  0  0  0  0
  -25.5353    3.2897  -37.9170 O   0  0  0  0  0  0  0  0  0  0  0  0
  -25.3340   -1.2596  -30.9296 O   0  0  0  0  0  0  0  0  0  0  0  0
  -25.2300    2.4525  -30.6543 O   0  0  0  0  0  0  0  0  0  0  0  0
  -24.9889    6.1355  -34.2806 O   0  0  0  0  0  0  0  0  0  0  0  0
  -23.1950   -2.6295  -29.9670 O   0  0  0  0  0  0  0  0  0  0  0  0
  -20.3660    0.5952  -31.8930 O   0  0  0  0  0  0  0  0  0  0  0  0
  1  2  1  0
  1  3  1  0
  2 31  1  0
  2 32  1  0
  3  6  1  0
  3 30  1  0
  4  5  2  0
  4  7  1  0
  5  8  1  0
  6 10  1  0
  6 32  1  0
  6 33  1  0
  7  9  2  0
  7 33  1  0
  8 11  1  0
  8 12  2  0
  9 12  1  0
  9 36  1  0
 10 15  1  0
 12 19  1  0
 13 34  1  0
 14 16  2  0
 14 17  1  0
 15 21  1  0
 15 37  1  0
 16 20  1  0
 16 34  1  0
 17 22  2  0
 17 37  1  0
 18 19  1  0
 18 24  1  0
 18 35  2  0
 19 25  2  0
 20 23  2  0
 22 23  1  0
 23 26  1  0
 24 28  1  0
 24 38  2  0
 25 27  1  0
 25 29  1  0
 26 27  1  0
 28 29  1  0
 29 39  2  0
M  END
$$$$

     RDKit          3D

 46 50  0  0  0  0  0  0  0  0999 V2000
  -29.7515   -0.0320  -34.5944 C   0  0  0  0  0  0  0  0  0  0  0  0
  -28.8411   -1.2258  -32.5790 C   0  0  0  0  0  0  0  0  0  0  0  0
  -28.5901   -0.3697  -33.7024 C   0  0  0  0  0  0  0  0  0  0  0  0
  -27.8315   -1.5720  -31.7073 C   0  0  0  0  0  0  0  0  0  0  0  0
  -27.2535    0.0380  -33.9751 C   0  0  0  0  0  0  0  0  0  0  0  0
  -26.4995   -1.1007  -31.9403 C   0  0  0  0  0  0  0  0  0  0  0  0
  -26.2310    3.5317  -33.1826 C   0  0  0  0  0  0  0  0  0  0  0  0
  -26.1953   -0.3139  -33.1182 C   0  0  0  0  0  0  0  0  0  0  0  0
  -24.7831    0.1154  -33.4457 C   0  0  0  0  0  0  0  0  0  0  0  0
  -24.7587    6.0760  -33.7761 C   0  0  0  0  0  0  0  0  0  0  0  0
  -24.7210    7.1886  -31.3583 C   0  0  0  0  0  0  0  0  0  0  0  0
  -24.2439    1.1582  -32.4453 C   0  0  0  0  0  0  0  0  0  0  0  0
  -24.2239    4.5390  -34.4051 C   0  0  0  0  0  0  0  0  0  0  0  0
  -24.0783    6.4185  -32.3806 C   0  0  0  0  0  0  0  0  0  0  0  0
  -24.0973    7.4120  -30.0953 C   0  0  0  0  0  0  0  0  0  0  0  0
  -22.7541    5.8521  -32.1050 C   0  0  0  0  0  0  0  0  0  0  0  0
  -22.7448    6.9631  -29.8773 C   0  0  0  0  0  0  0  0  0  0  0  0
  -22.1226    4.9668  -33.0781 C   0  0  0  0  0  0  0  0  0  0  0  0
  -22.1109    6.1295  -30.8350 C   0  0  0  0  0  0  0  0  0  0  0  0
  -21.9475    5.2444  -35.4739 C   0  0  0  0  0  0  0  0  0  0  0  0
  -21.9200    6.6213  -35.9558 C   0  0  0  0  0  0  0  0  0  0  0  0
  -21.3599   -2.5541  -31.1120 C   0  0  0  0  0  0  0  0  0  0  0  0
  -21.4322   -1.1305  -31.1586 C   0  0  0  0  0  0  0  0  0  0  0  0
  -21.1309    4.2484  -36.1489 C   0  0  0  0  0  0  0  0  0  0  0  0
  -21.0745    6.9296  -37.1305 C   0  0  0  0  0  0  0  0  0  0  0  0
  -20.9383    8.2740  -37.7178 C   0  0  0  0  0  0  0  0  0  0  0  0
  -20.2471   -0.3596  -30.9813 C   0  0  0  0  0  0  0  0  0  0  0  0
  -20.3671    4.6055  -37.2962 C   0  0  0  0  0  0  0  0  0  0  0  0
  -20.3017    5.9212  -37.7745 C   0  0  0  0  0  0  0  0  0  0  0  0
  -20.1728   -4.7780  -30.8342 C   0  0  0  0  0  0  0  0  0  0  0  0
  -20.1602   -3.2180  -30.8677 C   0  0  0  0  0  0  0  0  0  0  0  0
  -18.9753   -2.5027  -30.6780 C   0  0  0  0  0  0  0  0  0  0  0  0
  -18.9716   -1.0423  -30.7463 C   0  0  0  0  0  0  0  0  0  0  0  0
  -21.8639    1.3642  -32.3183 O   0  0  0  0  0  0  0  0  0  0  0  0
  -21.3951    9.3291  -37.1375 O   0  0  0  0  0  0  0  0  0  0  0  0
  -21.1607    4.3354  -32.7996 O   0  0  0  0  0  0  0  0  0  0  0  0
  -20.1440    8.3686  -38.7611 O   0  0  0  0  0  0  0  0  0  0  0  0
  -24.8335    3.3771  -33.5884 N   0  0  0  0  0  0  0  0  0  0  0  0
  -24.0498    2.4002  -33.1525 N   0  0  0  0  0  0  0  0  0  0  0  0
  -22.9888    0.6551  -31.9194 N   0  0  0  0  0  0  0  0  0  0  0  0
  -22.7375   -0.5855  -31.5093 N   0  0  0  0  0  0  0  0  0  0  0  0
  -22.7321    4.8398  -34.3451 N   0  0  0  0  0  0  0  0  0  0  0  0
  -30.8773    0.1548  -33.7593 F   0  0  0  0  0  0  0  0  0  0  0  0
  -30.1440   -0.9366  -35.5414 F   0  0  0  0  0  0  0  0  0  0  0  0
  -29.5194    1.1117  -35.2022 F   0  0  0  0  0  0  0  0  0  0  0  0
  -28.1295   -2.2244  -30.6161 F   0  0  0  0  0  0  0  0  0  0  0  0
  1  3  1  0
  1 43  1  0
  1 44  1  0
  1 45  1  0
  2  3  1  0
  2  4  2  0
  3  5  1  0
  4  6  1  0
  4 46  1  0
  5  8  2  0
  6  8  1  0
  7 38  1  0
  8  9  1  0
  9 12  1  0
 10 13  1  0
 10 14  1  0
 11 14  2  0
 11 15  1  0
 12 39  1  0
 12 40  1  0
 13 38  1  0
 13 42  1  0
 14 16  1  0
 15 17  2  0
 16 18  1  0
 16 19  2  0
 17 19  1  0
 18 36  2  0
 18 42  1  0
 20 21  2  0
 20 24  1  0
 20 42  1  0
 21 25  1  0
 22 23  2  0
 22 31  1  0
 23 27  1  0
 23 41  1  0
 24 28  2  0
 25 26  1  0
 25 29  2  0
 26 35  2  0
 26 37  1  0
 27 33  2  0
 28 29  1  0
 30 31  1  0
 31 32  2  0
 32 33  1  0
 34 40  1  0
 38 39  1  0
 40 41  1  0
M  END
$$$$

     RDKit          3D

 51 57  0  0  0  0  0  0  0  0999 V2000
  -30.5960    2.7199  -33.4579 C   0  0  0  0  0  0  0  0  0  0  0  0
  -30.4249    7.9614  -32.6302 C   0  0  0  0  0  0  0  0  0  0  0  0
  -28.7879    5.6315  -31.7965 C   0  0  0  0  0  0  0  0  0  0  0  0
  -28.5795    1.3819  -34.0640 C   0  0  0  0  0  0  0  0  0  0  0  0
  -28.3340    2.3063  -35.0719 C   0  0  0  0  0  0  0  0  0  0  0  0
  -28.2864    6.7005  -32.6178 C   0  0  0  0  0  0  0  0  0  0  0  0
  -27.9400    4.5249  -31.5677 C   0  0  0  0  0  0  0  0  0  0  0  0
  -27.4972    0.5822  -33.5290 C   0  0  0  0  0  0  0  0  0  0  0  0
  -27.0791    2.4706  -35.5590 C   0  0  0  0  0  0  0  0  0  0  0  0
  -26.9911    6.5876  -33.2562 C   0  0  0  0  0  0  0  0  0  0  0  0
  -26.6896    4.4467  -32.1067 C   0  0  0  0  0  0  0  0  0  0  0  0
  -26.2212    5.4422  -32.9894 C   0  0  0  0  0  0  0  0  0  0  0  0
  -26.1947    0.8100  -34.0826 C   0  0  0  0  0  0  0  0  0  0  0  0
  -26.0456    1.7294  -35.0861 C   0  0  0  0  0  0  0  0  0  0  0  0
  -24.9743    5.1448  -33.7781 C   0  0  0  0  0  0  0  0  0  0  0  0
  -24.9523   -0.6772  -32.5840 C   0  0  0  0  0  0  0  0  0  0  0  0
  -24.6435    1.3245  -31.1350 C   0  0  0  0  0  0  0  0  0  0  0  0
  -24.0952   -0.0505  -31.4453 C   0  0  0  0  0  0  0  0  0  0  0  0
  -23.9222    2.4755  -31.5777 C   0  0  0  0  0  0  0  0  0  0  0  0
  -23.8640    4.3686  -35.5434 C   0  0  0  0  0  0  0  0  0  0  0  0
  -23.4980    3.9478  -36.8252 C   0  0  0  0  0  0  0  0  0  0  0  0
  -23.0429    4.1997  -34.4581 C   0  0  0  0  0  0  0  0  0  0  0  0
  -23.0047    4.6396  -30.9604 C   0  0  0  0  0  0  0  0  0  0  0  0
  -23.0330    5.2680  -32.2446 C   0  0  0  0  0  0  0  0  0  0  0  0
  -22.8449    6.7455  -32.3904 C   0  0  0  0  0  0  0  0  0  0  0  0
  -22.6109    0.0557  -31.7367 C   0  0  0  0  0  0  0  0  0  0  0  0
  -22.6668    5.4004  -27.4398 C   0  0  0  0  0  0  0  0  0  0  0  0
  -22.3545   -2.1148  -30.6562 C   0  0  0  0  0  0  0  0  0  0  0  0
  -22.2351    3.3203  -36.9818 C   0  0  0  0  0  0  0  0  0  0  0  0
  -22.3931    4.8403  -26.1592 C   0  0  0  0  0  0  0  0  0  0  0  0
  -22.4126    5.3705  -29.9352 C   0  0  0  0  0  0  0  0  0  0  0  0
  -22.1842    4.7837  -28.5869 C   0  0  0  0  0  0  0  0  0  0  0  0
  -21.7183   -0.9619  -31.1622 C   0  0  0  0  0  0  0  0  0  0  0  0
  -21.8206    3.5014  -34.5612 C   0  0  0  0  0  0  0  0  0  0  0  0
  -21.9189    6.6926  -30.1128 C   0  0  0  0  0  0  0  0  0  0  0  0
  -21.9378    7.3120  -31.3910 C   0  0  0  0  0  0  0  0  0  0  0  0
  -21.5871   -3.1926  -30.2227 C   0  0  0  0  0  0  0  0  0  0  0  0
  -21.6204    3.6744  -26.0716 C   0  0  0  0  0  0  0  0  0  0  0  0
  -21.4155    3.0857  -35.8251 C   0  0  0  0  0  0  0  0  0  0  0  0
  -21.4192    3.6216  -28.4798 C   0  0  0  0  0  0  0  0  0  0  0  0
  -21.1370    3.0474  -27.2273 C   0  0  0  0  0  0  0  0  0  0  0  0
  -20.3261   -0.8247  -31.1018 C   0  0  0  0  0  0  0  0  0  0  0  0
  -20.1918   -3.1074  -30.2483 C   0  0  0  0  0  0  0  0  0  0  0  0
  -19.7357    0.5272  -31.3345 C   0  0  0  0  0  0  0  0  0  0  0  0
  -19.5698   -1.9214  -30.7242 C   0  0  0  0  0  0  0  0  0  0  0  0
  -25.0244    0.1674  -33.7169 O   0  0  0  0  0  0  0  0  0  0  0  0
  -23.4087    3.4037  -30.8755 O   0  0  0  0  0  0  0  0  0  0  0  0
  -29.9182    1.3083  -33.5571 N   0  0  0  0  0  0  0  0  0  0  0  0
  -29.0697    7.9068  -32.6826 N   0  0  0  0  0  0  0  0  0  0  0  0
  -24.9972    4.9724  -35.1105 N   0  0  0  0  0  0  0  0  0  0  0  0
  -23.6939    4.7500  -33.3434 N   0  0  0  0  0  0  0  0  0  0  0  0
  1 48  1  0
  2 49  1  0
  3  6  2  0
  3  7  1  0
  4  5  2  0
  4  8  1  0
  4 48  1  0
  5  9  1  0
  6 10  1  0
  6 49  1  0
  7 11  2  0
  8 13  2  0
  9 14  2  0
 10 12  2  0
 11 12  1  0
 12 15  1  0
 13 14  1  0
 13 46  1  0
 15 50  2  0
 15 51  1  0
 16 18  1  0
 16 46  1  0
 17 18  1  0
 17 19  1  0
 18 26  1  0
 19 47  1  0
 20 21  2  0
 20 22  1  0
 20 50  1  0
 21 29  1  0
 22 34  2  0
 22 51  1  0
 23 24  1  0
 23 31  2  0
 23 47  1  0
 24 25  1  0
 24 51  1  0
 25 36  1  0
 26 33  2  3
 27 30  2  0
 27 32  1  0
 28 33  1  0
 28 37  2  0
 29 39  2  0
 30 38  1  0
 31 32  1  0
 31 35  1  0
 32 40  2  0
 33 42  1  0
 34 39  1  0
 35 36  1  0
 37 43  1  0
 38 41  2  0
 40 41  1  0
 42 44  1  0
 42 45  2  0
 43 45  1  0
M  END
$$$$

     RDKit          3D

 45 50  0  0  0  0  0  0  0  0999 V2000
  -32.8025    0.9218  -33.6906 C   0  0  0  0  0  0  0  0  0  0  0  0
  -32.0453    0.6857  -34.9509 C   0  0  0  0  0  0  0  0  0  0  0  0
  -30.9265    1.5638  -35.4646 C   0  0  0  0  0  0  0  0  0  0  0  0
  -30.0774   -0.6085  -34.8224 C   0  0  0  0  0  0  0  0  0  0  0  0
  -29.6022    0.8259  -35.1361 C   0  0  0  0  0  0  0  0  0  0  0  0
  -28.8266    1.5590  -34.0308 C   0  0  0  0  0  0  0  0  0  0  0  0
  -27.9692    7.3240  -31.2379 C   0  0  0  0  0  0  0  0  0  0  0  0
  -27.6625    7.7551  -29.9262 C   0  0  0  0  0  0  0  0  0  0  0  0
  -27.0962    6.4358  -31.9144 C   0  0  0  0  0  0  0  0  0  0  0  0
  -26.7824    1.5570  -32.7977 C   0  0  0  0  0  0  0  0  0  0  0  0
  -26.4770    7.2638  -29.2974 C   0  0  0  0  0  0  0  0  0  0  0  0
  -25.7275    0.5781  -32.3196 C   0  0  0  0  0  0  0  0  0  0  0  0
  -25.9421    5.9769  -31.2756 C   0  0  0  0  0  0  0  0  0  0  0  0
  -25.6169    6.4041  -30.0030 C   0  0  0  0  0  0  0  0  0  0  0  0
  -25.3550    0.8510  -30.8908 C   0  0  0  0  0  0  0  0  0  0  0  0
  -25.3180    3.3249  -33.3579 C   0  0  0  0  0  0  0  0  0  0  0  0
  -24.8119    4.7435  -33.1666 C   0  0  0  0  0  0  0  0  0  0  0  0
  -24.3890    5.8381  -29.6844 C   0  0  0  0  0  0  0  0  0  0  0  0
  -23.9178    5.0852  -30.8021 C   0  0  0  0  0  0  0  0  0  0  0  0
  -23.4000   -0.5782  -31.3896 C   0  0  0  0  0  0  0  0  0  0  0  0
  -22.6842    4.2632  -30.7906 C   0  0  0  0  0  0  0  0  0  0  0  0
  -22.2883    3.8878  -29.5069 C   0  0  0  0  0  0  0  0  0  0  0  0
  -22.0550   -0.9706  -30.8122 C   0  0  0  0  0  0  0  0  0  0  0  0
  -21.8724    3.8774  -31.8690 C   0  0  0  0  0  0  0  0  0  0  0  0
  -21.2586   -0.1983  -29.9058 C   0  0  0  0  0  0  0  0  0  0  0  0
  -21.1459    3.1474  -29.3022 C   0  0  0  0  0  0  0  0  0  0  0  0
  -20.6969    3.1334  -31.6664 C   0  0  0  0  0  0  0  0  0  0  0  0
  -20.2389   -2.7796  -29.7489 C   0  0  0  0  0  0  0  0  0  0  0  0
  -20.3142    2.7665  -30.3576 C   0  0  0  0  0  0  0  0  0  0  0  0
  -19.4791   -1.6217  -29.1154 C   0  0  0  0  0  0  0  0  0  0  0  0
  -19.6345   -0.3117  -29.9280 C   0  0  0  0  0  0  0  0  0  0  0  0
  -18.9764    2.0611  -30.0910 C   0  0  0  0  0  0  0  0  0  0  0  0
  -31.9995   -1.3103  -36.0760 O   0  0  0  0  0  0  0  0  0  0  0  0
  -29.3045    2.4840  -33.3244 O   0  0  0  0  0  0  0  0  0  0  0  0
  -26.1715   -0.7446  -32.5523 O   0  0  0  0  0  0  0  0  0  0  0  0
  -26.0848    1.4850  -30.1276 O   0  0  0  0  0  0  0  0  0  0  0  0
  -24.8349    2.6883  -34.2165 O   0  0  0  0  0  0  0  0  0  0  0  0
  -19.3710   -0.3930  -31.1825 O   0  0  0  0  0  0  0  0  0  0  0  0
  -31.5038   -0.6393  -35.1000 N   0  0  0  0  0  0  0  0  0  0  0  0
  -27.5935    1.1065  -33.8172 N   0  0  0  0  0  0  0  0  0  0  0  0
  -26.3646    2.9131  -32.6628 N   0  0  0  0  0  0  0  0  0  0  0  0
  -24.9002    5.1629  -31.7455 N   0  0  0  0  0  0  0  0  0  0  0  0
  -24.1462    0.3650  -30.5353 N   0  0  0  0  0  0  0  0  0  0  0  0
  -19.1460    0.8113  -29.2925 N   0  0  0  0  0  0  0  0  0  0  0  0
  -21.8326   -2.6355  -30.3713 S   0  0  0  0  0  0  0  0  0  0  0  0
  1  2  1  0
  2  3  1  0
  2 39  1  0
  3  5  1  0
  4  5  1  0
  4 39  1  0
  5  6  1  0
  6 34  2  0
  6 40  1  0
  7  8  2  0
  7  9  1  0
  8 11  1  0
  9 13  2  0
 10 12  1  0
 10 40  2  3
 10 41  1  0
 11 14  2  0
 12 15  1  0
 12 35  1  0
 13 14  1  0
 13 42  1  0
 14 18  1  0
 15 36  2  0
 15 43  1  0
 16 17  1  0
 16 37  2  0
 16 41  1  0
 17 42  1  0
 18 19  1  0
 19 21  1  0
 19 42  1  0
 20 23  1  0
 20 43  1  0
 21 22  2  0
 21 24  1  0
 22 26  1  0
 23 25  1  0
 23 45  1  0
 24 27  2  0
 25 31  1  0
 26 29  2  0
 27 29  1  0
 28 30  1  0
 28 45  1  0
 29 32  1  0
 30 31  1  0
 31 38  1  0
 31 44  1  0
 32 44  1  0
 33 39  1  0
M  END
$$$$

     RDKit          3D

 44 49  0  0  0  0  0  0  0  0999 V2000
  -31.1430    0.1698  -33.6963 C   0  0  0  0  0  0  0  0  0  0  0  0
  -30.7817    1.6544  -33.7234 C   0  0  0  0  0  0  0  0  0  0  0  0
  -29.7054   -0.7217  -33.3492 C   0  0  0  0  0  0  0  0  0  0  0  0
  -29.4919    2.1347  -33.1421 C   0  0  0  0  0  0  0  0  0  0  0  0
  -28.6139    0.0180  -34.1104 C   0  0  0  0  0  0  0  0  0  0  0  0
  -28.2915    1.3579  -33.5642 C   0  0  0  0  0  0  0  0  0  0  0  0
  -28.0470    2.2026  -34.2406 C   0  0  0  0  0  0  0  0  0  0  0  0
  -27.7466    2.5268  -35.3963 C   0  0  0  0  0  0  0  0  0  0  0  0
  -26.9082    3.8571  -35.5013 C   0  0  0  0  0  0  0  0  0  0  0  0
  -26.8763    4.6824  -34.2392 C   0  0  0  0  0  0  0  0  0  0  0  0
  -25.4725    3.2208  -35.5717 C   0  0  0  0  0  0  0  0  0  0  0  0
  -25.4374    4.4772  -33.6710 C   0  0  0  0  0  0  0  0  0  0  0  0
  -24.3369    1.0182  -32.5268 C   0  0  0  0  0  0  0  0  0  0  0  0
  -23.9554   -1.0858  -31.2393 C   0  0  0  0  0  0  0  0  0  0  0  0
  -23.4600    0.0936  -31.8342 C   0  0  0  0  0  0  0  0  0  0  0  0
  -23.5289    2.9378  -33.8844 C   0  0  0  0  0  0  0  0  0  0  0  0
  -22.7278   -1.7103  -30.7745 C   0  0  0  0  0  0  0  0  0  0  0  0
  -22.4889   -2.9470  -30.1548 C   0  0  0  0  0  0  0  0  0  0  0  0
  -22.0348    3.3055  -33.8752 C   0  0  0  0  0  0  0  0  0  0  0  0
  -22.1704    5.7476  -33.9817 C   0  0  0  0  0  0  0  0  0  0  0  0
  -22.0828    6.9541  -34.6870 C   0  0  0  0  0  0  0  0  0  0  0  0
  -21.7126    3.5296  -32.3904 C   0  0  0  0  0  0  0  0  0  0  0  0
  -21.7724    4.5632  -34.6372 C   0  0  0  0  0  0  0  0  0  0  0  0
  -21.6519   -0.8319  -31.0983 C   0  0  0  0  0  0  0  0  0  0  0  0
  -21.4647    6.9685  -35.9584 C   0  0  0  0  0  0  0  0  0  0  0  0
  -21.3338    8.2055  -36.6889 C   0  0  0  0  0  0  0  0  0  0  0  0
  -21.0026    5.7739  -36.5470 C   0  0  0  0  0  0  0  0  0  0  0  0
  -20.7034    8.1768  -37.9300 C   0  0  0  0  0  0  0  0  0  0  0  0
  -20.3659   -1.1813  -30.7614 C   0  0  0  0  0  0  0  0  0  0  0  0
  -20.3494    5.8093  -37.7731 C   0  0  0  0  0  0  0  0  0  0  0  0
  -20.1608   -2.4785  -30.2343 C   0  0  0  0  0  0  0  0  0  0  0  0
  -20.2091    6.9887  -38.4538 C   0  0  0  0  0  0  0  0  0  0  0  0
  -19.0300    0.8032  -31.1905 C   0  0  0  0  0  0  0  0  0  0  0  0
  -18.2455   -1.4144  -30.4398 C   0  0  0  0  0  0  0  0  0  0  0  0
  -25.1184   -1.5288  -31.1322 O   0  0  0  0  0  0  0  0  0  0  0  0
  -25.0529    2.7674  -36.6074 O   0  0  0  0  0  0  0  0  0  0  0  0
  -23.5773    1.8322  -33.3656 O   0  0  0  0  0  0  0  0  0  0  0  0
  -19.2205   -0.5505  -30.8430 O   0  0  0  0  0  0  0  0  0  0  0  0
  -24.7356    3.4704  -34.4481 N   0  0  0  0  0  0  0  0  0  0  0  0
  -23.6997    2.3044  -32.6343 N   0  0  0  0  0  0  0  0  0  0  0  0
  -22.1187    0.1835  -31.8036 N   0  0  0  0  0  0  0  0  0  0  0  0
  -21.1762   -3.3292  -29.9240 N   0  0  0  0  0  0  0  0  0  0  0  0
  -21.1437    4.5808  -35.8412 N   0  0  0  0  0  0  0  0  0  0  0  0
  -18.8079   -2.6058  -30.1033 N   0  0  0  0  0  0  0  0  0  0  0  0
  1  2  1  0
  1  3  1  0
  2  4  1  0
  3  5  1  0
  4  6  1  0
  5  6  1  0
  6  7  1  0
  7  8  1  0
  8  9  1  0
  9 10  1  0
  9 11  1  0
 10 12  1  0
 11 36  2  0
 11 39  1  0
 12 39  1  0
 13 15  1  0
 13 40  1  0
 14 15  1  0
 14 17  1  0
 14 35  2  0
 15 41  1  0
 16 19  1  0
 16 37  1  0
 16 39  1  0
 17 18  1  0
 17 24  2  0
 18 42  2  0
 19 22  1  0
 19 23  1  0
 20 21  2  0
 20 23  1  0
 21 25  1  0
 23 43  2  0
 24 29  1  0
 24 41  1  0
 25 26  2  0
 25 27  1  0
 26 28  1  0
 27 30  2  0
 27 43  1  0
 28 32  2  0
 29 31  2  0
 29 38  1  0
 30 32  1  0
 31 42  1  0
 31 44  1  0
 33 38  1  0
 34 44  1  0
 37 40  1  0
M  END
$$$$

     RDKit          3D

 48 55  0  0  0  0  0  0  0  0999 V2000
  -32.2112    7.7387  -27.8089 C   0  0  0  0  0  0  0  0  0  0  0  0
  -31.8350    8.2426  -30.4221 C   0  0  0  0  0  0  0  0  0  0  0  0
  -30.8768    7.4386  -28.3809 C   0  0  0  0  0  0  0  0  0  0  0  0
  -30.6888    7.6840  -29.7584 C   0  0  0  0  0  0  0  0  0  0  0  0
  -29.8423    6.9597  -27.5877 C   0  0  0  0  0  0  0  0  0  0  0  0
  -29.4414    7.4132  -30.3303 C   0  0  0  0  0  0  0  0  0  0  0  0
  -28.5945    6.7155  -28.1591 C   0  0  0  0  0  0  0  0  0  0  0  0
  -28.2350   -0.9125  -33.7098 C   0  0  0  0  0  0  0  0  0  0  0  0
  -28.3808    6.9636  -29.5142 C   0  0  0  0  0  0  0  0  0  0  0  0
  -27.9132   -1.6583  -32.5744 C   0  0  0  0  0  0  0  0  0  0  0  0
  -27.5620    0.2890  -33.9385 C   0  0  0  0  0  0  0  0  0  0  0  0
  -26.9009   -1.2019  -31.6959 C   0  0  0  0  0  0  0  0  0  0  0  0
  -26.8976    5.2955  -30.6506 C   0  0  0  0  0  0  0  0  0  0  0  0
  -26.5655    0.7763  -33.0814 C   0  0  0  0  0  0  0  0  0  0  0  0
  -26.5986    7.6984  -31.0444 C   0  0  0  0  0  0  0  0  0  0  0  0
  -26.2224   -0.0065  -31.9557 C   0  0  0  0  0  0  0  0  0  0  0  0
  -25.9040    2.1225  -33.3080 C   0  0  0  0  0  0  0  0  0  0  0  0
  -25.7796    4.4881  -32.7536 C   0  0  0  0  0  0  0  0  0  0  0  0
  -25.6877    6.9102  -31.9861 C   0  0  0  0  0  0  0  0  0  0  0  0
  -24.8292    4.2781  -36.8832 C   0  0  0  0  0  0  0  0  0  0  0  0
  -24.9339    4.8076  -33.9095 C   0  0  0  0  0  0  0  0  0  0  0  0
  -24.2984    3.5433  -34.4920 C   0  0  0  0  0  0  0  0  0  0  0  0
  -24.4044    4.5562  -38.1737 C   0  0  0  0  0  0  0  0  0  0  0  0
  -24.0232   -0.2417  -30.9050 C   0  0  0  0  0  0  0  0  0  0  0  0
  -23.8959    3.8269  -35.9304 C   0  0  0  0  0  0  0  0  0  0  0  0
  -23.0279    0.8112  -31.1755 C   0  0  0  0  0  0  0  0  0  0  0  0
  -23.0460    4.4098  -38.4866 C   0  0  0  0  0  0  0  0  0  0  0  0
  -22.5582    3.6964  -36.2678 C   0  0  0  0  0  0  0  0  0  0  0  0
  -22.2939   -1.9859  -30.7690 C   0  0  0  0  0  0  0  0  0  0  0  0
  -21.9953   -3.3297  -30.6085 C   0  0  0  0  0  0  0  0  0  0  0  0
  -22.1397    3.9618  -37.5414 C   0  0  0  0  0  0  0  0  0  0  0  0
  -21.6388    0.3585  -31.1549 C   0  0  0  0  0  0  0  0  0  0  0  0
  -21.2902   -1.0062  -30.9089 C   0  0  0  0  0  0  0  0  0  0  0  0
  -20.7106    3.8507  -37.9483 C   0  0  0  0  0  0  0  0  0  0  0  0
  -20.6360   -3.7194  -30.5926 C   0  0  0  0  0  0  0  0  0  0  0  0
  -20.6634    1.3141  -31.2685 C   0  0  0  0  0  0  0  0  0  0  0  0
  -19.9307   -1.4116  -30.8438 C   0  0  0  0  0  0  0  0  0  0  0  0
  -19.5981   -2.7813  -30.7040 C   0  0  0  0  0  0  0  0  0  0  0  0
  -19.3152    0.9300  -31.1350 C   0  0  0  0  0  0  0  0  0  0  0  0
  -18.9670   -0.4073  -30.9320 C   0  0  0  0  0  0  0  0  0  0  0  0
  -26.3687    3.2372  -32.6781 O   0  0  0  0  0  0  0  0  0  0  0  0
  -23.7695   -1.5488  -30.8907 O   0  0  0  0  0  0  0  0  0  0  0  0
  -20.4460    3.0837  -38.8996 O   0  0  0  0  0  0  0  0  0  0  0  0
  -19.8314    4.4741  -37.3539 O   0  0  0  0  0  0  0  0  0  0  0  0
  -27.1183    6.7311  -30.0807 N   0  0  0  0  0  0  0  0  0  0  0  0
  -26.0492    5.4801  -31.8380 N   0  0  0  0  0  0  0  0  0  0  0  0
  -25.2508    0.3525  -31.0546 N   0  0  0  0  0  0  0  0  0  0  0  0
  -25.0124    2.2758  -34.3340 N   0  0  0  0  0  0  0  0  0  0  0  0
  1  3  1  0
  2  4  1  0
  3  4  2  0
  3  5  1  0
  4  6  1  0
  5  7  2  0
  6  9  2  0
  7  9  1  0
  8 10  2  0
  8 11  1  0
  9 45  1  0
 10 12  1  0
 11 14  2  0
 12 16  2  0
 13 45  1  0
 13 46  1  0
 14 16  1  0
 14 17  1  0
 15 19  1  0
 15 45  1  0
 16 47  1  0
 17 41  1  0
 17 48  1  0
 18 21  1  0
 18 41  1  0
 18 46  1  0
 19 46  1  0
 20 23  2  0
 20 25  1  0
 21 22  1  0
 22 25  1  0
 22 48  1  0
 23 27  1  0
 24 26  1  0
 24 42  1  0
 24 47  1  0
 25 28  2  0
 26 32  1  0
 27 31  2  0
 28 31  1  0
 29 30  2  0
 29 33  1  0
 29 42  1  0
 30 35  1  0
 31 34  1  0
 32 33  1  0
 32 36  2  0
 33 37  1  0
 34 43  2  0
 34 44  1  0
 35 38  1  0
 36 39  1  0
 37 38  2  0
 37 40  1  0
 39 40  2  0
M  END
$$$$

     RDKit          3D

 36 40  0  0  0  0  0  0  0  0999 V2000
  -30.6117    8.0344  -32.1138 C   0  0  0  0  0  0  0  0  0  0  0  0
  -30.4313    8.3600  -33.4444 C   0  0  0  0  0  0  0  0  0  0  0  0
  -29.7897    1.0124  -35.0614 C   0  0  0  0  0  0  0  0  0  0  0  0
  -29.8181    7.0481  -31.5329 C   0  0  0  0  0  0  0  0  0  0  0  0
  -29.4878    7.6904  -34.2659 C   0  0  0  0  0  0  0  0  0  0  0  0
  -28.8510    6.3574  -32.2511 C   0  0  0  0  0  0  0  0  0  0  0  0
  -28.7088    6.6823  -33.6080 C   0  0  0  0  0  0  0  0  0  0  0  0
  -28.2256    2.1212  -33.4900 C   0  0  0  0  0  0  0  0  0  0  0  0
  -28.4372    3.9062  -31.9536 C   0  0  0  0  0  0  0  0  0  0  0  0
  -28.0294    5.2725  -31.5238 C   0  0  0  0  0  0  0  0  0  0  0  0
  -27.7057    0.9924  -34.0640 C   0  0  0  0  0  0  0  0  0  0  0  0
  -27.5703    2.7730  -32.4590 C   0  0  0  0  0  0  0  0  0  0  0  0
  -26.4624    0.4716  -33.6516 C   0  0  0  0  0  0  0  0  0  0  0  0
  -26.3375    2.2409  -32.0064 C   0  0  0  0  0  0  0  0  0  0  0  0
  -25.7609    1.0994  -32.6014 C   0  0  0  0  0  0  0  0  0  0  0  0
  -25.9360    6.2175  -30.6191 C   0  0  0  0  0  0  0  0  0  0  0  0
  -24.5492   -0.7378  -31.4724 C   0  0  0  0  0  0  0  0  0  0  0  0
  -24.5044    0.5055  -32.1758 C   0  0  0  0  0  0  0  0  0  0  0  0
  -24.4518    5.9306  -30.6830 C   0  0  0  0  0  0  0  0  0  0  0  0
  -23.7777    5.7805  -31.9165 C   0  0  0  0  0  0  0  0  0  0  0  0
  -23.7365    5.7950  -29.4839 C   0  0  0  0  0  0  0  0  0  0  0  0
  -23.3614   -1.3145  -31.0093 C   0  0  0  0  0  0  0  0  0  0  0  0
  -23.2802    1.1359  -32.3821 C   0  0  0  0  0  0  0  0  0  0  0  0
  -22.3911    5.5209  -31.9492 C   0  0  0  0  0  0  0  0  0  0  0  0
  -22.3763    5.4850  -29.5488 C   0  0  0  0  0  0  0  0  0  0  0  0
  -22.1705   -0.6765  -31.2769 C   0  0  0  0  0  0  0  0  0  0  0  0
  -22.0856    0.5595  -31.9052 C   0  0  0  0  0  0  0  0  0  0  0  0
  -21.6417    5.5606  -30.7482 C   0  0  0  0  0  0  0  0  0  0  0  0
  -20.8513   -1.1153  -30.8112 C   0  0  0  0  0  0  0  0  0  0  0  0
  -20.7049    1.1217  -31.9911 C   0  0  0  0  0  0  0  0  0  0  0  0
  -28.5032    0.4276  -34.9888 O   0  0  0  0  0  0  0  0  0  0  0  0
  -25.7297   -1.3625  -31.2166 O   0  0  0  0  0  0  0  0  0  0  0  0
  -23.3991   -2.4610  -30.3627 O   0  0  0  0  0  0  0  0  0  0  0  0
  -26.6125    5.4522  -31.6029 N   0  0  0  0  0  0  0  0  0  0  0  0
  -19.8234   -0.8394  -30.6232 N   0  0  0  0  0  0  0  0  0  0  0  0
  -19.9573    0.0917  -31.3616 N   0  0  0  0  0  0  0  0  0  0  0  0
  1  2  2  0
  1  4  1  0
  2  5  1  0
  3 31  1  0
  4  6  2  0
  5  7  2  0
  6  7  1  0
  6 10  1  0
  8 11  2  0
  8 12  1  0
  9 10  1  0
  9 12  1  0
 10 34  1  0
 11 13  1  0
 11 31  1  0
 12 14  2  0
 13 15  2  0
 14 15  1  0
 15 18  1  0
 16 19  1  0
 16 34  1  0
 17 18  1  0
 17 22  2  0
 17 32  1  0
 18 23  1  0
 19 20  2  0
 19 21  1  0
 20 24  1  0
 21 25  2  0
 22 26  1  0
 22 33  1  0
 23 27  2  0
 24 28  1  0
 25 28  1  0
 26 27  1  0
 26 29  2  0
 27 30  1  0
 29 35  1  0
 30 36  1  0
 35 36  1  0
M  END
$$$$

     RDKit          3D

 36 39  0  0  0  0  0  0  0  0999 V2000
  -30.2227    0.7059  -33.6736 C   0  0  0  0  0  0  0  0  0  0  0  0
  -28.8970    1.4498  -33.7148 C   0  0  0  0  0  0  0  0  0  0  0  0
  -28.4186    1.8433  -34.9714 C   0  0  0  0  0  0  0  0  0  0  0  0
  -28.2132    1.6768  -32.5515 C   0  0  0  0  0  0  0  0  0  0  0  0
  -27.0727    4.9592  -30.9824 C   0  0  0  0  0  0  0  0  0  0  0  0
  -26.9262    2.2095  -32.6558 C   0  0  0  0  0  0  0  0  0  0  0  0
  -26.9035    6.2463  -30.3664 C   0  0  0  0  0  0  0  0  0  0  0  0
  -26.3057    2.3215  -33.9313 C   0  0  0  0  0  0  0  0  0  0  0  0
  -26.1938    2.5634  -31.4105 C   0  0  0  0  0  0  0  0  0  0  0  0
  -26.0545    4.0151  -30.8789 C   0  0  0  0  0  0  0  0  0  0  0  0
  -25.7134    6.5800  -29.6676 C   0  0  0  0  0  0  0  0  0  0  0  0
  -24.8651    4.3903  -30.2725 C   0  0  0  0  0  0  0  0  0  0  0  0
  -24.7070    5.6306  -29.6346 C   0  0  0  0  0  0  0  0  0  0  0  0
  -24.4486    3.3432  -36.1292 C   0  0  0  0  0  0  0  0  0  0  0  0
  -24.1731    2.4631  -35.0832 C   0  0  0  0  0  0  0  0  0  0  0  0
  -23.6884    3.2955  -37.2955 C   0  0  0  0  0  0  0  0  0  0  0  0
  -23.0082   -2.0264  -31.0992 C   0  0  0  0  0  0  0  0  0  0  0  0
  -23.0471   -0.6272  -30.9355 C   0  0  0  0  0  0  0  0  0  0  0  0
  -23.1195    1.5097  -35.1948 C   0  0  0  0  0  0  0  0  0  0  0  0
  -22.7935    3.5640  -29.3327 C   0  0  0  0  0  0  0  0  0  0  0  0
  -22.6656    2.3665  -37.4553 C   0  0  0  0  0  0  0  0  0  0  0  0
  -22.3673    1.4647  -36.4020 C   0  0  0  0  0  0  0  0  0  0  0  0
  -22.0710    2.2223  -29.1619 C   0  0  0  0  0  0  0  0  0  0  0  0
  -21.9454   -2.7653  -30.6562 C   0  0  0  0  0  0  0  0  0  0  0  0
  -21.9341    0.0486  -30.4238 C   0  0  0  0  0  0  0  0  0  0  0  0
  -21.7416    2.2055  -31.5795 C   0  0  0  0  0  0  0  0  0  0  0  0
  -20.7822   -2.0678  -30.2370 C   0  0  0  0  0  0  0  0  0  0  0  0
  -20.7709   -0.6720  -30.1034 C   0  0  0  0  0  0  0  0  0  0  0  0
  -29.1928    1.8246  -36.0280 O   0  0  0  0  0  0  0  0  0  0  0  0
  -24.1752    0.0075  -31.1635 O   0  0  0  0  0  0  0  0  0  0  0  0
  -23.8710    3.4480  -30.2454 O   0  0  0  0  0  0  0  0  0  0  0  0
  -21.8312    1.8373  -27.9455 O   0  0  0  0  0  0  0  0  0  0  0  0
  -19.7611   -2.7977  -29.9817 O   0  0  0  0  0  0  0  0  0  0  0  0
  -27.0932    2.1923  -35.0693 N   0  0  0  0  0  0  0  0  0  0  0  0
  -24.9535    2.5523  -33.9386 N   0  0  0  0  0  0  0  0  0  0  0  0
  -21.9970    1.4633  -30.3278 N   0  0  0  0  0  0  0  0  0  0  0  0
  1  2  1  0
  2  3  1  0
  2  4  2  0
  3 29  2  0
  3 34  1  0
  4  6  1  0
  5  7  2  0
  5 10  1  0
  6  8  1  0
  6  9  1  0
  7 11  1  0
  8 34  1  0
  8 35  2  3
  9 10  1  0
 10 12  2  0
 11 13  2  0
 12 13  1  0
 12 31  1  0
 14 15  2  0
 14 16  1  0
 15 19  1  0
 15 35  1  0
 16 21  2  0
 17 18  1  0
 17 24  2  0
 18 25  2  0
 18 30  1  0
 19 22  2  0
 20 23  1  0
 20 31  1  0
 21 22  1  0
 23 32  2  0
 23 36  1  0
 24 27  1  0
 25 28  1  0
 25 36  1  0
 26 36  1  0
 27 28  1  0
 27 33  2  0
M  END
$$$$

     RDKit          3D

 35 39  0  0  0  0  0  0  0  0999 V2000
  -30.4473    0.7963  -34.4136 C   0  0  0  0  0  0  0  0  0  0  0  0
  -29.3148   -0.9953  -33.0693 C   0  0  0  0  0  0  0  0  0  0  0  0
  -29.2101    0.2565  -33.7541 C   0  0  0  0  0  0  0  0  0  0  0  0
  -28.2106   -1.5190  -32.3272 C   0  0  0  0  0  0  0  0  0  0  0  0
  -28.0405    0.9454  -33.7749 C   0  0  0  0  0  0  0  0  0  0  0  0
  -27.0299   -0.7322  -32.2842 C   0  0  0  0  0  0  0  0  0  0  0  0
  -26.9377    0.4813  -33.0167 C   0  0  0  0  0  0  0  0  0  0  0  0
  -25.7316    1.1773  -33.0039 C   0  0  0  0  0  0  0  0  0  0  0  0
  -24.8056   -0.4056  -31.5526 C   0  0  0  0  0  0  0  0  0  0  0  0
  -24.2905    3.3581  -34.3004 C   0  0  0  0  0  0  0  0  0  0  0  0
  -23.8563    5.1860  -34.7126 C   0  0  0  0  0  0  0  0  0  0  0  0
  -22.6334    5.2017  -35.5947 C   0  0  0  0  0  0  0  0  0  0  0  0
  -22.4510   -0.4654  -31.3185 C   0  0  0  0  0  0  0  0  0  0  0  0
  -22.3407    6.3536  -36.3519 C   0  0  0  0  0  0  0  0  0  0  0  0
  -22.2018    0.7892  -32.0034 C   0  0  0  0  0  0  0  0  0  0  0  0
  -21.8322    4.0437  -35.7020 C   0  0  0  0  0  0  0  0  0  0  0  0
  -21.5761   -2.7587  -31.0312 C   0  0  0  0  0  0  0  0  0  0  0  0
  -21.3207   -1.3860  -31.0879 C   0  0  0  0  0  0  0  0  0  0  0  0
  -21.2232    6.3168  -37.2164 C   0  0  0  0  0  0  0  0  0  0  0  0
  -20.7218    4.0376  -36.5378 C   0  0  0  0  0  0  0  0  0  0  0  0
  -20.5407   -3.6455  -30.7890 C   0  0  0  0  0  0  0  0  0  0  0  0
  -20.4212    5.1824  -37.2933 C   0  0  0  0  0  0  0  0  0  0  0  0
  -20.0284   -0.9041  -30.9137 C   0  0  0  0  0  0  0  0  0  0  0  0
  -19.2351   -3.1805  -30.6225 C   0  0  0  0  0  0  0  0  0  0  0  0
  -18.9688   -1.8020  -30.6767 C   0  0  0  0  0  0  0  0  0  0  0  0
  -31.2042   -0.0315  -34.9649 O   0  0  0  0  0  0  0  0  0  0  0  0
  -30.7649    1.9841  -34.2485 O   0  0  0  0  0  0  0  0  0  0  0  0
  -24.5492    4.1159  -35.0993 O   0  0  0  0  0  0  0  0  0  0  0  0
  -23.9564    5.8356  -33.6379 O   0  0  0  0  0  0  0  0  0  0  0  0
  -25.9604   -1.1110  -31.4792 N   0  0  0  0  0  0  0  0  0  0  0  0
  -24.7004    0.7081  -32.2852 N   0  0  0  0  0  0  0  0  0  0  0  0
  -23.7010   -0.9106  -31.1006 N   0  0  0  0  0  0  0  0  0  0  0  0
  -23.4566    1.4701  -32.1812 N   0  0  0  0  0  0  0  0  0  0  0  0
  -23.2647    2.9500  -33.5677 N   0  0  0  0  0  0  0  0  0  0  0  0
  -25.6566    2.6056  -34.0142 S   0  0  0  0  0  0  0  0  0  0  0  0
  1  3  1  0
  1 26  2  0
  1 27  1  0
  2  3  1  0
  2  4  1  0
  3  5  2  0
  4  6  2  0
  5  7  1  0
  6  7  1  0
  6 30  1  0
  7  8  2  0
  8 31  1  0
  8 35  1  0
  9 30  2  0
  9 31  1  0
  9 32  1  0
 10 28  1  0
 10 34  2  0
 10 35  1  0
 11 12  1  0
 11 28  1  0
 11 29  2  0
 12 14  2  0
 12 16  1  0
 13 15  1  0
 13 18  1  0
 13 32  1  0
 14 19  1  0
 15 33  1  0
 16 20  2  0
 17 18  2  0
 17 21  1  0
 18 23  1  0
 19 22  2  0
 20 22  1  0
 21 24  2  0
 23 25  2  0
 24 25  1  0
 31 33  1  0
M  END
$$$$

     RDKit          3D

 40 43  0  0  0  0  0  0  0  0999 V2000
  -31.4201    0.0139  -36.3292 C   0  0  0  0  0  0  0  0  0  0  0  0
  -30.5142   -0.2454  -34.1754 C   0  0  0  0  0  0  0  0  0  0  0  0
  -30.5477    1.1375  -36.6061 C   0  0  0  0  0  0  0  0  0  0  0  0
  -29.9329    7.5767  -28.3721 C   0  0  0  0  0  0  0  0  0  0  0  0
  -29.5981    0.8025  -34.3884 C   0  0  0  0  0  0  0  0  0  0  0  0
  -29.6315    1.5337  -35.5994 C   0  0  0  0  0  0  0  0  0  0  0  0
  -28.4466    1.1640  -33.4889 C   0  0  0  0  0  0  0  0  0  0  0  0
  -28.1117    6.4650  -31.0391 C   0  0  0  0  0  0  0  0  0  0  0  0
  -28.0503    7.3181  -29.8840 C   0  0  0  0  0  0  0  0  0  0  0  0
  -27.1461    0.4448  -33.8206 C   0  0  0  0  0  0  0  0  0  0  0  0
  -26.9256    5.8259  -31.5074 C   0  0  0  0  0  0  0  0  0  0  0  0
  -26.8524    7.4892  -29.1645 C   0  0  0  0  0  0  0  0  0  0  0  0
  -26.0092    1.0861  -31.7702 C   0  0  0  0  0  0  0  0  0  0  0  0
  -25.8575    1.1072  -33.3081 C   0  0  0  0  0  0  0  0  0  0  0  0
  -25.5306   -0.2502  -31.1492 C   0  0  0  0  0  0  0  0  0  0  0  0
  -25.5135    2.3974  -31.3344 C   0  0  0  0  0  0  0  0  0  0  0  0
  -25.4795    2.5629  -33.6122 C   0  0  0  0  0  0  0  0  0  0  0  0
  -25.6836    6.0005  -30.7380 C   0  0  0  0  0  0  0  0  0  0  0  0
  -25.6555    6.7904  -29.5811 C   0  0  0  0  0  0  0  0  0  0  0  0
  -24.4922    4.4714  -32.3829 C   0  0  0  0  0  0  0  0  0  0  0  0
  -24.4148    5.2370  -31.1290 C   0  0  0  0  0  0  0  0  0  0  0  0
  -24.1169   -0.3806  -30.8003 C   0  0  0  0  0  0  0  0  0  0  0  0
  -24.0007    5.1921  -33.5307 C   0  0  0  0  0  0  0  0  0  0  0  0
  -21.8498   -0.1520  -31.2107 C   0  0  0  0  0  0  0  0  0  0  0  0
  -21.4567   -1.4718  -30.8290 C   0  0  0  0  0  0  0  0  0  0  0  0
  -20.8612    0.8978  -31.2600 C   0  0  0  0  0  0  0  0  0  0  0  0
  -20.1121   -1.7562  -30.5147 C   0  0  0  0  0  0  0  0  0  0  0  0
  -19.4952    0.5802  -30.9252 C   0  0  0  0  0  0  0  0  0  0  0  0
  -19.1387   -0.7179  -30.5521 C   0  0  0  0  0  0  0  0  0  0  0  0
  -29.1882    8.0011  -29.5209 O   0  0  0  0  0  0  0  0  0  0  0  0
  -27.1828   -0.8789  -33.6374 O   0  0  0  0  0  0  0  0  0  0  0  0
  -26.2860   -1.1811  -30.8736 O   0  0  0  0  0  0  0  0  0  0  0  0
  -25.9243    3.0957  -34.6570 O   0  0  0  0  0  0  0  0  0  0  0  0
  -25.4609    2.6876  -30.1374 O   0  0  0  0  0  0  0  0  0  0  0  0
  -24.6430    5.4115  -34.5633 O   0  0  0  0  0  0  0  0  0  0  0  0
  -23.1745    0.1514  -31.5593 O   0  0  0  0  0  0  0  0  0  0  0  0
  -22.9680    5.7555  -33.3524 O   0  0  0  0  0  0  0  0  0  0  0  0
  -31.4013   -0.6275  -35.1267 N   0  0  0  0  0  0  0  0  0  0  0  0
  -25.1321    3.1948  -32.4191 N   0  0  0  0  0  0  0  0  0  0  0  0
  -32.6783   -0.5043  -37.3787 Cl  0  0  0  0  0  0  0  0  0  0  0  0
  1  3  2  0
  1 38  1  0
  1 40  1  0
  2  5  1  0
  2 38  2  0
  3  6  1  0
  4 30  1  0
  5  6  2  0
  5  7  1  0
  7 10  1  0
  8  9  2  0
  8 11  1  0
  9 12  1  0
  9 30  1  0
 10 14  1  0
 10 31  1  0
 11 18  2  0
 12 19  2  0
 13 14  1  0
 13 15  1  0
 13 16  1  0
 14 17  1  0
 15 22  1  0
 15 32  2  0
 16 34  2  0
 16 39  1  0
 17 33  2  0
 17 39  1  0
 18 19  1  0
 18 21  1  0
 20 21  1  0
 20 23  1  0
 20 39  1  0
 22 36  1  0
 23 35  2  0
 23 37  1  0
 24 25  2  0
 24 26  1  0
 24 36  1  0
 25 27  1  0
 26 28  1  0
 27 29  1  0
 28 29  2  0
M  END
$$$$

     RDKit          3D

 25 27  0  0  0  0  0  0  0  0999 V2000
  -29.4135    0.3313  -34.3585 C   0  0  0  0  0  0  0  0  0  0  0  0
  -28.0246    0.2467  -33.8313 C   0  0  0  0  0  0  0  0  0  0  0  0
  -27.6903   -0.6738  -32.8080 C   0  0  0  0  0  0  0  0  0  0  0  0
  -27.0028    1.0724  -34.3303 C   0  0  0  0  0  0  0  0  0  0  0  0
  -25.7480    1.0187  -33.7474 C   0  0  0  0  0  0  0  0  0  0  0  0
  -25.4997    0.1256  -32.6777 C   0  0  0  0  0  0  0  0  0  0  0  0
  -24.5503    1.7755  -34.2398 C   0  0  0  0  0  0  0  0  0  0  0  0
  -24.2838    3.1104  -33.7971 C   0  0  0  0  0  0  0  0  0  0  0  0
  -23.6840    1.2008  -35.1132 C   0  0  0  0  0  0  0  0  0  0  0  0
  -23.1100    3.7525  -34.1698 C   0  0  0  0  0  0  0  0  0  0  0  0
  -22.7214    5.1135  -33.6794 C   0  0  0  0  0  0  0  0  0  0  0  0
  -22.4823    1.8016  -35.5034 C   0  0  0  0  0  0  0  0  0  0  0  0
  -22.6698    6.1987  -34.5787 C   0  0  0  0  0  0  0  0  0  0  0  0
  -22.2083    3.0974  -35.0697 C   0  0  0  0  0  0  0  0  0  0  0  0
  -22.4364    5.3439  -32.2954 C   0  0  0  0  0  0  0  0  0  0  0  0
  -22.3156    7.4620  -34.1162 C   0  0  0  0  0  0  0  0  0  0  0  0
  -22.1062    6.6414  -31.8585 C   0  0  0  0  0  0  0  0  0  0  0  0
  -22.0179    7.6622  -32.7809 C   0  0  0  0  0  0  0  0  0  0  0  0
  -21.4782    5.7232  -29.5933 O   0  0  0  0  0  0  0  0  0  0  0  0
  -20.6725    8.0284  -29.9889 O   0  0  0  0  0  0  0  0  0  0  0  0
  -28.5701   -1.5602  -32.3335 N   0  0  0  0  0  0  0  0  0  0  0  0
  -26.4583   -0.6756  -32.2224 N   0  0  0  0  0  0  0  0  0  0  0  0
  -23.0820    7.7482  -29.5460 N   0  0  0  0  0  0  0  0  0  0  0  0
  -21.7743    7.0131  -30.1161 S   0  0  0  0  0  0  0  0  0  0  0  0
  -27.3941    2.3387  -35.4605 Cl  0  0  0  0  0  0  0  0  0  0  0  0
  1  2  1  0
  2  3  1  0
  2  4  2  0
  3 21  2  0
  3 22  1  0
  4  5  1  0
  4 25  1  0
  5  6  1  0
  5  7  1  0
  6 22  2  0
  7  8  2  0
  7  9  1  0
  8 10  1  0
  9 12  2  0
 10 11  1  0
 10 14  2  0
 11 13  2  0
 11 15  1  0
 12 14  1  0
 13 16  1  0
 15 17  2  0
 16 18  2  0
 17 18  1  0
 17 24  1  0
 19 24  1  0
 20 24  1  0
 23 24  1  0
M  END
$$$$

     RDKit          3D

 25 28  0  0  0  0  0  0  0  0999 V2000
  -26.1238   -0.9538  -32.0513 C   0  0  0  0  0  0  0  0  0  0  0  0
  -25.9278    0.0006  -33.1579 C   0  0  0  0  0  0  0  0  0  0  0  0
  -25.2657   -0.7671  -34.3399 C   0  0  0  0  0  0  0  0  0  0  0  0
  -25.3640    4.1446  -36.7289 C   0  0  0  0  0  0  0  0  0  0  0  0
  -25.4028    7.3126  -36.1483 C   0  0  0  0  0  0  0  0  0  0  0  0
  -25.0772    1.2147  -32.6035 C   0  0  0  0  0  0  0  0  0  0  0  0
  -25.2072    2.6391  -34.7444 C   0  0  0  0  0  0  0  0  0  0  0  0
  -24.7611   -0.8482  -31.0248 C   0  0  0  0  0  0  0  0  0  0  0  0
  -24.9592    7.7743  -34.7416 C   0  0  0  0  0  0  0  0  0  0  0  0
  -24.6857    5.2729  -37.5925 C   0  0  0  0  0  0  0  0  0  0  0  0
  -24.3927    1.2988  -30.1179 C   0  0  0  0  0  0  0  0  0  0  0  0
  -24.2881    2.0920  -33.6010 C   0  0  0  0  0  0  0  0  0  0  0  0
  -24.4385    3.7049  -35.5923 C   0  0  0  0  0  0  0  0  0  0  0  0
  -24.2370    6.4621  -36.7232 C   0  0  0  0  0  0  0  0  0  0  0  0
  -24.1765    0.6843  -31.4489 C   0  0  0  0  0  0  0  0  0  0  0  0
  -24.0767    4.9141  -34.6978 C   0  0  0  0  0  0  0  0  0  0  0  0
  -23.7204    3.3311  -32.7856 C   0  0  0  0  0  0  0  0  0  0  0  0
  -23.4919    7.3724  -34.6074 C   0  0  0  0  0  0  0  0  0  0  0  0
  -23.4331    6.0816  -35.4946 C   0  0  0  0  0  0  0  0  0  0  0  0
  -23.1014    4.4426  -33.5912 C   0  0  0  0  0  0  0  0  0  0  0  0
  -22.7128    0.3733  -31.7918 C   0  0  0  0  0  0  0  0  0  0  0  0
  -22.4558   -1.0759  -31.3401 C   0  0  0  0  0  0  0  0  0  0  0  0
  -27.0447   -1.3227  -31.4686 O   0  0  0  0  0  0  0  0  0  0  0  0
  -25.3010    9.0298  -34.4548 O   0  0  0  0  0  0  0  0  0  0  0  0
  -24.8296    3.9884  -32.1249 O   0  0  0  0  0  0  0  0  0  0  0  0
  1  2  1  0
  1  8  1  0
  1 23  2  0
  2  3  1  0
  2  6  1  0
  4 10  1  0
  4 13  1  0
  5  9  1  0
  5 14  1  0
  6 12  1  0
  6 15  1  0
  7 12  1  0
  7 13  1  0
  8 15  1  0
  9 18  1  0
  9 24  1  0
 10 14  1  0
 11 15  1  0
 12 17  1  0
 13 16  1  0
 14 19  1  0
 15 21  1  0
 16 19  1  0
 16 20  1  0
 17 20  1  0
 17 25  1  0
 18 19  1  0
 21 22  1  0
M  END
$$$$

     RDKit          3D

 31 33  0  0  0  0  0  0  0  0999 V2000
  -31.0203    8.2760  -30.0648 C   0  0  0  0  0  0  0  0  0  0  0  0
  -30.4922    5.6778  -32.5351 C   0  0  0  0  0  0  0  0  0  0  0  0
  -30.5576    7.9467  -31.4085 C   0  0  0  0  0  0  0  0  0  0  0  0
  -30.2844    3.2393  -33.4011 C   0  0  0  0  0  0  0  0  0  0  0  0
  -29.9951    0.8792  -33.9820 C   0  0  0  0  0  0  0  0  0  0  0  0
  -29.7588    4.4169  -32.7430 C   0  0  0  0  0  0  0  0  0  0  0  0
  -29.9274    6.6082  -31.6375 C   0  0  0  0  0  0  0  0  0  0  0  0
  -29.4598    2.0291  -33.4319 C   0  0  0  0  0  0  0  0  0  0  0  0
  -29.2681   -0.3230  -33.9401 C   0  0  0  0  0  0  0  0  0  0  0  0
  -28.5910    6.4736  -31.1452 C   0  0  0  0  0  0  0  0  0  0  0  0
  -28.4328    4.2696  -32.1948 C   0  0  0  0  0  0  0  0  0  0  0  0
  -28.1265    1.9961  -32.9380 C   0  0  0  0  0  0  0  0  0  0  0  0
  -27.9490   -0.3432  -33.4859 C   0  0  0  0  0  0  0  0  0  0  0  0
  -27.8778    5.2779  -31.3882 C   0  0  0  0  0  0  0  0  0  0  0  0
  -27.3490    0.8272  -33.0393 C   0  0  0  0  0  0  0  0  0  0  0  0
  -25.9238    0.8331  -32.6017 C   0  0  0  0  0  0  0  0  0  0  0  0
  -25.2619   -0.5168  -32.4208 C   0  0  0  0  0  0  0  0  0  0  0  0
  -23.8557   -0.6106  -31.8477 C   0  0  0  0  0  0  0  0  0  0  0  0
  -23.1470    0.6929  -31.6999 C   0  0  0  0  0  0  0  0  0  0  0  0
  -22.7185    1.3759  -33.0006 C   0  0  0  0  0  0  0  0  0  0  0  0
  -21.6426    2.4221  -32.6800 C   0  0  0  0  0  0  0  0  0  0  0  0
  -31.4672    3.2768  -33.8909 O   0  0  0  0  0  0  0  0  0  0  0  0
  -31.2882    0.8813  -34.4209 O   0  0  0  0  0  0  0  0  0  0  0  0
  -29.9571   -1.3053  -34.3556 O   0  0  0  0  0  0  0  0  0  0  0  0
  -30.1931    8.7572  -32.3345 O   0  0  0  0  0  0  0  0  0  0  0  0
  -27.6725    3.1505  -32.3823 O   0  0  0  0  0  0  0  0  0  0  0  0
  -19.9095    3.9312  -30.4939 O   0  0  0  0  0  0  0  0  0  0  0  0
  -18.4932    2.0105  -30.2875 O   0  0  0  0  0  0  0  0  0  0  0  0
  -18.6305    3.1680  -32.4457 O   0  0  0  0  0  0  0  0  0  0  0  0
  -20.6843    1.8271  -31.7383 N   0  0  0  0  0  0  0  0  0  0  0  0
  -19.3245    2.8140  -31.2398 S   0  0  0  0  0  0  0  0  0  0  0  0
  1  3  1  0
  2  6  1  0
  2  7  2  0
  3  7  1  0
  3 25  2  0
  4  6  1  0
  4  8  1  0
  4 22  2  0
  5  8  2  0
  5  9  1  0
  5 23  1  0
  6 11  1  0
  7 10  1  0
  8 12  1  0
  9 13  1  0
  9 24  2  0
 10 14  1  0
 11 14  2  0
 11 26  1  0
 12 15  2  0
 12 26  1  0
 13 15  1  0
 15 16  1  0
 16 17  2  3
 17 18  1  0
 18 19  1  0
 19 20  1  0
 20 21  1  0
 21 30  1  0
 27 31  1  0
 28 31  1  0
 29 31  1  0
 30 31  1  0
M  END
$$$$

     RDKit          3D

 34 38  0  0  0  0  0  0  0  0999 V2000
  -30.9760    2.3547  -33.4217 C   0  0  0  0  0  0  0  0  0  0  0  0
  -29.5802    2.6727  -33.7365 C   0  0  0  0  0  0  0  0  0  0  0  0
  -29.2975    3.4950  -34.7745 C   0  0  0  0  0  0  0  0  0  0  0  0
  -28.6178    1.9766  -33.0295 C   0  0  0  0  0  0  0  0  0  0  0  0
  -27.9402    3.7990  -35.0349 C   0  0  0  0  0  0  0  0  0  0  0  0
  -27.5675    4.6889  -36.0928 C   0  0  0  0  0  0  0  0  0  0  0  0
  -27.2793    2.2238  -33.2123 C   0  0  0  0  0  0  0  0  0  0  0  0
  -26.8907    3.2043  -34.2503 C   0  0  0  0  0  0  0  0  0  0  0  0
  -26.2401    1.4813  -32.4082 C   0  0  0  0  0  0  0  0  0  0  0  0
  -26.2287    5.0027  -36.3152 C   0  0  0  0  0  0  0  0  0  0  0  0
  -25.8002    1.9013  -31.1204 C   0  0  0  0  0  0  0  0  0  0  0  0
  -25.6737    0.3222  -33.0121 C   0  0  0  0  0  0  0  0  0  0  0  0
  -25.5276    3.5362  -34.4540 C   0  0  0  0  0  0  0  0  0  0  0  0
  -25.2214    4.4395  -35.5057 C   0  0  0  0  0  0  0  0  0  0  0  0
  -24.7848    1.1138  -30.5254 C   0  0  0  0  0  0  0  0  0  0  0  0
  -24.5851   -0.3628  -32.3794 C   0  0  0  0  0  0  0  0  0  0  0  0
  -24.1671   -0.0234  -31.1274 C   0  0  0  0  0  0  0  0  0  0  0  0
  -22.1616    4.1496  -32.1083 C   0  0  0  0  0  0  0  0  0  0  0  0
  -21.8211   -2.8350  -30.3401 C   0  0  0  0  0  0  0  0  0  0  0  0
  -20.5260   -3.3415  -30.4706 C   0  0  0  0  0  0  0  0  0  0  0  0
  -20.4673   -1.0628  -30.6020 C   0  0  0  0  0  0  0  0  0  0  0  0
  -20.5306    1.1660  -31.7523 C   0  0  0  0  0  0  0  0  0  0  0  0
  -20.1638   -4.7896  -30.5846 C   0  0  0  0  0  0  0  0  0  0  0  0
  -19.9610    0.2877  -30.7969 C   0  0  0  0  0  0  0  0  0  0  0  0
  -20.1116    2.5014  -31.8036 C   0  0  0  0  0  0  0  0  0  0  0  0
  -19.6692   -2.2744  -30.6515 C   0  0  0  0  0  0  0  0  0  0  0  0
  -18.9931    0.7367  -29.9518 C   0  0  0  0  0  0  0  0  0  0  0  0
  -19.1554    2.9838  -30.8435 C   0  0  0  0  0  0  0  0  0  0  0  0
  -18.5663    2.0678  -29.9624 C   0  0  0  0  0  0  0  0  0  0  0  0
  -30.2544    4.1430  -35.3746 O   0  0  0  0  0  0  0  0  0  0  0  0
  -26.1977   -0.0656  -34.1262 O   0  0  0  0  0  0  0  0  0  0  0  0
  -23.0447   -0.7427  -30.3452 N   0  0  0  0  0  0  0  0  0  0  0  0
  -21.7589   -1.4978  -30.4561 N   0  0  0  0  0  0  0  0  0  0  0  0
  -20.7504    3.3995  -32.6455 N   0  0  0  0  0  0  0  0  0  0  0  0
  1  2  1  0
  2  3  2  0
  2  4  1  0
  3  5  1  0
  3 30  1  0
  4  7  2  0
  5  6  2  0
  5  8  1  0
  6 10  1  0
  7  8  1  0
  7  9  1  0
  8 13  2  0
  9 11  2  0
  9 12  1  0
 10 14  2  0
 11 15  1  0
 12 16  2  0
 12 31  1  0
 13 14  1  0
 15 17  2  0
 16 17  1  0
 17 32  1  0
 18 34  1  0
 19 20  1  0
 19 33  1  0
 20 23  1  0
 20 26  1  0
 21 24  1  0
 21 26  1  0
 21 33  1  0
 22 24  2  0
 22 25  1  0
 24 27  1  0
 25 28  2  0
 25 34  1  0
 27 29  2  0
 28 29  1  0
 32 33  1  0
M  END
$$$$

     RDKit          3D

 45 50  0  0  0  0  0  0  0  0999 V2000
  -29.4660    4.8162  -36.5827 C   0  0  0  0  0  0  0  0  0  0  0  0
  -29.1864    0.0769  -33.8821 C   0  0  0  0  0  0  0  0  0  0  0  0
  -28.7288   -0.9344  -33.0685 C   0  0  0  0  0  0  0  0  0  0  0  0
  -28.8011    2.0143  -35.2105 C   0  0  0  0  0  0  0  0  0  0  0  0
  -28.2662    0.9427  -34.4735 C   0  0  0  0  0  0  0  0  0  0  0  0
  -27.9719    2.9424  -35.8318 C   0  0  0  0  0  0  0  0  0  0  0  0
  -27.3653   -1.1025  -32.8345 C   0  0  0  0  0  0  0  0  0  0  0  0
  -27.1980    4.4897  -32.6601 C   0  0  0  0  0  0  0  0  0  0  0  0
  -26.9817    7.7759  -33.6184 C   0  0  0  0  0  0  0  0  0  0  0  0
  -26.8770    0.7770  -34.3248 C   0  0  0  0  0  0  0  0  0  0  0  0
  -26.9524    3.8824  -31.4359 C   0  0  0  0  0  0  0  0  0  0  0  0
  -26.5929    2.7740  -35.6873 C   0  0  0  0  0  0  0  0  0  0  0  0
  -26.4242   -0.2685  -33.4518 C   0  0  0  0  0  0  0  0  0  0  0  0
  -26.4146    5.6820  -34.7589 C   0  0  0  0  0  0  0  0  0  0  0  0
  -26.0177    1.7042  -34.9935 C   0  0  0  0  0  0  0  0  0  0  0  0
  -26.1528    4.9632  -33.4522 C   0  0  0  0  0  0  0  0  0  0  0  0
  -25.7744    3.7935  -36.3757 C   0  0  0  0  0  0  0  0  0  0  0  0
  -25.9476    5.2051  -36.0980 C   0  0  0  0  0  0  0  0  0  0  0  0
  -25.6076    3.7638  -30.9688 C   0  0  0  0  0  0  0  0  0  0  0  0
  -25.2337    7.7505  -35.1848 C   0  0  0  0  0  0  0  0  0  0  0  0
  -24.8364    4.9268  -32.9780 C   0  0  0  0  0  0  0  0  0  0  0  0
  -24.5191   -0.4373  -31.8734 C   0  0  0  0  0  0  0  0  0  0  0  0
  -24.5577    4.3978  -31.7172 C   0  0  0  0  0  0  0  0  0  0  0  0
  -23.0558   -0.4979  -31.5999 C   0  0  0  0  0  0  0  0  0  0  0  0
  -23.1268    4.2416  -31.2689 C   0  0  0  0  0  0  0  0  0  0  0  0
  -23.0762    4.8192  -28.8604 C   0  0  0  0  0  0  0  0  0  0  0  0
  -22.7165    5.1664  -30.1381 C   0  0  0  0  0  0  0  0  0  0  0  0
  -22.7615    5.6123  -27.7755 C   0  0  0  0  0  0  0  0  0  0  0  0
  -22.5449   -1.7840  -31.2248 C   0  0  0  0  0  0  0  0  0  0  0  0
  -22.5898    1.9661  -31.8897 C   0  0  0  0  0  0  0  0  0  0  0  0
  -22.1669    0.5835  -31.6043 C   0  0  0  0  0  0  0  0  0  0  0  0
  -21.9601    6.3176  -30.4273 C   0  0  0  0  0  0  0  0  0  0  0  0
  -22.0312    6.7203  -27.9149 C   0  0  0  0  0  0  0  0  0  0  0  0
  -21.1988   -1.9816  -30.9590 C   0  0  0  0  0  0  0  0  0  0  0  0
  -20.7927    0.4009  -31.3066 C   0  0  0  0  0  0  0  0  0  0  0  0
  -20.3476   -0.8839  -30.9860 C   0  0  0  0  0  0  0  0  0  0  0  0
  -28.4808    3.8838  -36.6892 O   0  0  0  0  0  0  0  0  0  0  0  0
  -25.2268   -0.5354  -30.8695 O   0  0  0  0  0  0  0  0  0  0  0  0
  -24.7603    1.6083  -34.9749 O   0  0  0  0  0  0  0  0  0  0  0  0
  -22.9233    2.8283  -30.9182 O   0  0  0  0  0  0  0  0  0  0  0  0
  -22.6988    2.2452  -33.0353 O   0  0  0  0  0  0  0  0  0  0  0  0
  -19.0880   -1.0674  -30.5875 O   0  0  0  0  0  0  0  0  0  0  0  0
  -26.4002    7.0824  -34.6574 N   0  0  0  0  0  0  0  0  0  0  0  0
  -25.0061   -0.4556  -33.1785 N   0  0  0  0  0  0  0  0  0  0  0  0
  -21.5024    7.4043  -29.3131 S   0  0  0  0  0  0  0  0  0  0  0  0
  1 37  1  0
  2  3  2  0
  2  5  1  0
  3  7  1  0
  4  5  2  0
  4  6  1  0
  5 10  1  0
  6 12  2  0
  6 37  1  0
  7 13  2  0
  8 11  1  0
  8 16  2  0
  9 43  1  0
 10 13  1  0
 10 15  1  0
 11 19  2  0
 12 15  1  0
 12 17  1  0
 13 44  1  0
 14 16  1  0
 14 18  1  0
 14 43  1  0
 15 39  2  0
 16 21  1  0
 17 18  1  0
 19 23  1  0
 20 43  1  0
 21 23  2  0
 22 24  1  0
 22 38  2  0
 22 44  1  0
 23 25  1  0
 24 29  1  0
 24 31  2  0
 25 27  1  0
 25 40  1  0
 26 27  2  0
 26 28  1  0
 27 32  1  0
 28 33  2  0
 29 34  2  0
 30 31  1  0
 30 40  1  0
 30 41  2  0
 31 35  1  0
 32 45  1  0
 33 45  1  0
 34 36  1  0
 35 36  2  0
 36 42  1  0
M  END
$$$$

     RDKit          3D

 32 35  0  0  0  0  0  0  0  0999 V2000
  -30.3451   -1.7862  -35.4161 C   0  0  0  0  0  0  0  0  0  0  0  0
  -30.2612   -0.4195  -35.6391 C   0  0  0  0  0  0  0  0  0  0  0  0
  -29.5312   -2.3751  -34.4171 C   0  0  0  0  0  0  0  0  0  0  0  0
  -29.3598    0.3855  -34.9159 C   0  0  0  0  0  0  0  0  0  0  0  0
  -29.1258    1.7827  -35.1604 C   0  0  0  0  0  0  0  0  0  0  0  0
  -28.6981   -1.5883  -33.6649 C   0  0  0  0  0  0  0  0  0  0  0  0
  -28.5925   -0.2251  -33.8934 C   0  0  0  0  0  0  0  0  0  0  0  0
  -28.1798    2.4873  -34.4306 C   0  0  0  0  0  0  0  0  0  0  0  0
  -27.7416    0.5288  -33.1216 C   0  0  0  0  0  0  0  0  0  0  0  0
  -27.8823    3.9290  -34.7060 C   0  0  0  0  0  0  0  0  0  0  0  0
  -27.5355    1.8380  -33.3721 C   0  0  0  0  0  0  0  0  0  0  0  0
  -26.2845    5.7792  -34.3150 C   0  0  0  0  0  0  0  0  0  0  0  0
  -25.4950    3.6916  -35.4694 C   0  0  0  0  0  0  0  0  0  0  0  0
  -24.2705    4.4592  -35.8099 C   0  0  0  0  0  0  0  0  0  0  0  0
  -24.2142    5.2245  -36.9874 C   0  0  0  0  0  0  0  0  0  0  0  0
  -23.1901    4.3978  -34.9636 C   0  0  0  0  0  0  0  0  0  0  0  0
  -23.0079    5.9091  -37.3080 C   0  0  0  0  0  0  0  0  0  0  0  0
  -22.9471    2.0585  -29.8918 C   0  0  0  0  0  0  0  0  0  0  0  0
  -22.8486    2.7120  -31.1068 C   0  0  0  0  0  0  0  0  0  0  0  0
  -22.5902    0.6844  -29.8234 C   0  0  0  0  0  0  0  0  0  0  0  0
  -22.4134    2.0195  -32.2633 C   0  0  0  0  0  0  0  0  0  0  0  0
  -22.3527    2.6323  -33.5781 C   0  0  0  0  0  0  0  0  0  0  0  0
  -22.1102    0.0244  -30.9720 C   0  0  0  0  0  0  0  0  0  0  0  0
  -21.9745    0.7039  -32.1641 C   0  0  0  0  0  0  0  0  0  0  0  0
  -22.0169    5.1061  -35.2600 C   0  0  0  0  0  0  0  0  0  0  0  0
  -21.9297    5.8511  -36.4260 C   0  0  0  0  0  0  0  0  0  0  0  0
  -21.6884   -1.3880  -30.9295 C   0  0  0  0  0  0  0  0  0  0  0  0
  -25.4170    2.4926  -35.6660 O   0  0  0  0  0  0  0  0  0  0  0  0
  -21.5623    2.2121  -34.3857 O   0  0  0  0  0  0  0  0  0  0  0  0
  -26.4951    4.3401  -34.8860 N   0  0  0  0  0  0  0  0  0  0  0  0
  -23.2135    3.6412  -33.8075 N   0  0  0  0  0  0  0  0  0  0  0  0
  -22.1290   -2.3788  -30.3238 N   0  0  0  0  0  0  0  0  0  0  0  0
  1  2  2  0
  1  3  1  0
  2  4  1  0
  3  6  2  0
  4  5  2  0
  4  7  1  0
  5  8  1  0
  6  7  1  0
  7  9  2  0
  8 10  1  0
  8 11  2  0
  9 11  1  0
 10 30  1  0
 12 30  1  0
 13 14  1  0
 13 28  2  0
 13 30  1  0
 14 15  2  0
 14 16  1  0
 15 17  1  0
 16 25  2  0
 16 31  1  0
 17 26  2  0
 18 19  2  0
 18 20  1  0
 19 21  1  0
 20 23  1  0
 21 22  1  0
 21 24  1  0
 22 29  2  0
 22 31  1  0
 23 24  2  0
 23 27  1  0
 25 26  1  0
 27 32  2  0
M  END
$$$$

     RDKit          3D

 59 61  0  0  0  0  0  0  0  0999 V2000
  -31.2616   -0.1196  -36.2669 C   0  0  0  0  0  0  0  0  0  0  0  0
  -30.9199    0.7376  -34.9122 C   0  0  0  0  0  0  0  0  0  0  0  0
  -30.5943    3.7529  -34.6086 C   0  0  0  0  0  0  0  0  0  0  0  0
  -30.2793   -0.1542  -33.7782 C   0  0  0  0  0  0  0  0  0  0  0  0
  -30.0725    2.9343  -35.7872 C   0  0  0  0  0  0  0  0  0  0  0  0
  -29.4347    7.4581  -29.6377 C   0  0  0  0  0  0  0  0  0  0  0  0
  -28.8925    0.3834  -33.5965 C   0  0  0  0  0  0  0  0  0  0  0  0
  -28.7538    3.4764  -36.4134 C   0  0  0  0  0  0  0  0  0  0  0  0
  -28.7881    4.9398  -36.8009 C   0  0  0  0  0  0  0  0  0  0  0  0
  -28.6823    1.4448  -34.4882 C   0  0  0  0  0  0  0  0  0  0  0  0
  -28.4833    6.6678  -30.4852 C   0  0  0  0  0  0  0  0  0  0  0  0
  -27.8124   -1.4605  -32.1623 C   0  0  0  0  0  0  0  0  0  0  0  0
  -27.8137   -0.6183  -33.3995 C   0  0  0  0  0  0  0  0  0  0  0  0
  -27.9098    5.3870  -37.9940 C   0  0  0  0  0  0  0  0  0  0  0  0
  -27.1549    6.3630  -30.0467 C   0  0  0  0  0  0  0  0  0  0  0  0
  -26.9491    3.9526  -30.7467 C   0  0  0  0  0  0  0  0  0  0  0  0
  -26.4621    0.0371  -33.5485 C   0  0  0  0  0  0  0  0  0  0  0  0
  -26.4948    5.1194  -30.2528 C   0  0  0  0  0  0  0  0  0  0  0  0
  -26.3306    2.7747  -31.2387 C   0  0  0  0  0  0  0  0  0  0  0  0
  -26.1735    8.9966  -32.6257 C   0  0  0  0  0  0  0  0  0  0  0  0
  -25.9455   -0.0568  -32.0910 C   0  0  0  0  0  0  0  0  0  0  0  0
  -25.8238    8.3031  -30.1467 C   0  0  0  0  0  0  0  0  0  0  0  0
  -25.7348    8.9170  -34.0014 C   0  0  0  0  0  0  0  0  0  0  0  0
  -25.4832   -0.6730  -34.4041 C   0  0  0  0  0  0  0  0  0  0  0  0
  -25.5532    8.2244  -31.5807 C   0  0  0  0  0  0  0  0  0  0  0  0
  -25.3239    3.6660  -38.5886 C   0  0  0  0  0  0  0  0  0  0  0  0
  -25.4350    4.9603  -37.8465 C   0  0  0  0  0  0  0  0  0  0  0  0
  -25.0977    1.9619  -30.9341 C   0  0  0  0  0  0  0  0  0  0  0  0
  -24.7262    0.7882  -31.8593 C   0  0  0  0  0  0  0  0  0  0  0  0
  -24.8620    6.7487  -36.6221 C   0  0  0  0  0  0  0  0  0  0  0  0
  -24.6917    7.9658  -34.3413 C   0  0  0  0  0  0  0  0  0  0  0  0
  -24.3294    5.5734  -37.1744 C   0  0  0  0  0  0  0  0  0  0  0  0
  -24.4065    7.4359  -31.9486 C   0  0  0  0  0  0  0  0  0  0  0  0
  -24.2064    7.8704  -35.8060 C   0  0  0  0  0  0  0  0  0  0  0  0
  -24.1306    2.4994  -30.1296 C   0  0  0  0  0  0  0  0  0  0  0  0
  -24.0073    7.2934  -33.3054 C   0  0  0  0  0  0  0  0  0  0  0  0
  -23.7696   -1.5831  -31.2761 C   0  0  0  0  0  0  0  0  0  0  0  0
  -23.8031   -0.1134  -31.1007 C   0  0  0  0  0  0  0  0  0  0  0  0
  -23.6200    6.7350  -30.9419 C   0  0  0  0  0  0  0  0  0  0  0  0
  -22.6757    7.8757  -35.9451 C   0  0  0  0  0  0  0  0  0  0  0  0
  -22.4079   -2.1596  -31.1882 C   0  0  0  0  0  0  0  0  0  0  0  0
  -20.4228   -0.9592  -30.3034 C   0  0  0  0  0  0  0  0  0  0  0  0
  -20.0686    0.3675  -30.8496 C   0  0  0  0  0  0  0  0  0  0  0  0
  -19.5149   -1.6011  -29.3218 C   0  0  0  0  0  0  0  0  0  0  0  0
  -19.4207   -0.8476  -25.7711 C   0  0  0  0  0  0  0  0  0  0  0  0
  -19.3082   -0.7154  -28.1311 C   0  0  0  0  0  0  0  0  0  0  0  0
  -18.6197   -1.3482  -26.9772 C   0  0  0  0  0  0  0  0  0  0  0  0
  -32.0473    0.5943  -37.1679 O   0  0  0  0  0  0  0  0  0  0  0  0
  -30.6580   -0.9874  -36.7235 O   0  0  0  0  0  0  0  0  0  0  0  0
  -29.8349    1.5856  -35.3763 O   0  0  0  0  0  0  0  0  0  0  0  0
  -28.1142   -1.6028  -34.2635 O   0  0  0  0  0  0  0  0  0  0  0  0
  -26.4691    7.3658  -29.4571 O   0  0  0  0  0  0  0  0  0  0  0  0
  -25.1875    9.1783  -29.5074 O   0  0  0  0  0  0  0  0  0  0  0  0
  -23.1143    5.1374  -37.2651 O   0  0  0  0  0  0  0  0  0  0  0  0
  -21.7027   -1.4412  -30.1397 O   0  0  0  0  0  0  0  0  0  0  0  0
  -20.8472    1.3840  -30.3482 O   0  0  0  0  0  0  0  0  0  0  0  0
  -17.1917   -0.9351  -26.7308 O   0  0  0  0  0  0  0  0  0  0  0  0
  -26.5252    5.7167  -37.6608 N   0  0  0  0  0  0  0  0  0  0  0  0
  -26.1820    6.8658  -37.0066 N   0  0  0  0  0  0  0  0  0  0  0  0
  1  2  1  0
  1 48  2  0
  1 49  1  0
  2  4  1  0
  2 50  1  0
  3  5  1  0
  4  7  1  0
  5  8  1  0
  5 50  1  0
  6 11  1  0
  7 10  1  0
  7 13  1  0
  8  9  1  0
  9 14  1  0
 11 15  1  0
 12 13  1  0
 13 17  1  0
 13 51  1  0
 14 58  1  0
 15 18  1  0
 15 52  1  0
 16 18  2  3
 16 19  1  0
 17 21  1  0
 17 24  1  0
 19 28  1  0
 20 23  1  0
 20 25  2  0
 21 29  1  0
 22 25  1  0
 22 52  1  0
 22 53  2  0
 23 31  2  0
 25 33  1  0
 26 27  1  0
 27 32  1  0
 27 58  1  0
 28 29  1  0
 28 35  2  0
 29 38  1  0
 30 32  2  0
 30 34  1  0
 30 59  1  0
 31 34  1  0
 31 36  1  0
 32 54  1  0
 33 36  2  0
 33 39  1  0
 34 40  1  0
 37 38  1  0
 37 41  1  0
 41 55  1  0
 42 43  1  0
 42 44  1  0
 42 55  1  0
 43 56  1  0
 44 46  1  0
 45 47  1  0
 46 47  1  0
 47 57  1  0
 58 59  1  0
M  END
$$$$

     RDKit          3D

 59 65  0  0  0  0  0  0  0  0999 V2000
  -31.7544    7.7733  -28.9082 C   0  0  0  0  0  0  0  0  0  0  0  0
  -31.5973    7.5309  -30.2825 C   0  0  0  0  0  0  0  0  0  0  0  0
  -30.7197    5.8453  -34.6158 C   0  0  0  0  0  0  0  0  0  0  0  0
  -30.6779    7.5588  -28.0372 C   0  0  0  0  0  0  0  0  0  0  0  0
  -30.2459    6.6775  -32.2307 C   0  0  0  0  0  0  0  0  0  0  0  0
  -30.3784    6.9988  -30.7571 C   0  0  0  0  0  0  0  0  0  0  0  0
  -29.7378    5.1710  -33.8347 C   0  0  0  0  0  0  0  0  0  0  0  0
  -29.3076    6.7697  -29.8599 C   0  0  0  0  0  0  0  0  0  0  0  0
  -29.4529    7.0466  -28.4974 C   0  0  0  0  0  0  0  0  0  0  0  0
  -27.3197    0.6311  -33.7723 C   0  0  0  0  0  0  0  0  0  0  0  0
  -27.2482    3.8177  -33.8496 C   0  0  0  0  0  0  0  0  0  0  0  0
  -27.1188    3.8857  -32.1369 C   0  0  0  0  0  0  0  0  0  0  0  0
  -26.9305    6.8379  -30.2135 C   0  0  0  0  0  0  0  0  0  0  0  0
  -26.2528    2.9232  -34.4623 C   0  0  0  0  0  0  0  0  0  0  0  0
  -26.1638    1.4608  -34.2877 C   0  0  0  0  0  0  0  0  0  0  0  0
  -25.9987    6.5626  -31.0284 C   0  0  0  0  0  0  0  0  0  0  0  0
  -25.8737    4.0670  -31.3510 C   0  0  0  0  0  0  0  0  0  0  0  0
  -25.4136    5.2963  -30.8541 C   0  0  0  0  0  0  0  0  0  0  0  0
  -24.9863    0.8156  -34.7069 C   0  0  0  0  0  0  0  0  0  0  0  0
  -25.1701    3.5845  -35.1229 C   0  0  0  0  0  0  0  0  0  0  0  0
  -24.9154    3.1195  -31.0396 C   0  0  0  0  0  0  0  0  0  0  0  0
  -24.6769   -0.5591  -30.9449 C   0  0  0  0  0  0  0  0  0  0  0  0
  -24.1421    0.7785  -31.0459 C   0  0  0  0  0  0  0  0  0  0  0  0
  -24.0517    2.8914  -35.6066 C   0  0  0  0  0  0  0  0  0  0  0  0
  -23.9504    1.5252  -35.3225 C   0  0  0  0  0  0  0  0  0  0  0  0
  -23.7985    3.7603  -30.3907 C   0  0  0  0  0  0  0  0  0  0  0  0
  -23.6420    7.3262  -34.8488 C   0  0  0  0  0  0  0  0  0  0  0  0
  -23.1588    6.1674  -30.1549 C   0  0  0  0  0  0  0  0  0  0  0  0
  -22.7256    0.9715  -31.1076 C   0  0  0  0  0  0  0  0  0  0  0  0
  -22.8056    6.3424  -32.6821 C   0  0  0  0  0  0  0  0  0  0  0  0
  -22.7899    6.6287  -28.8432 C   0  0  0  0  0  0  0  0  0  0  0  0
  -22.4959    6.7241  -31.2714 C   0  0  0  0  0  0  0  0  0  0  0  0
  -22.4588   -1.5137  -30.9701 C   0  0  0  0  0  0  0  0  0  0  0  0
  -21.8895   -0.2313  -31.0483 C   0  0  0  0  0  0  0  0  0  0  0  0
  -21.7144    7.5805  -28.7099 C   0  0  0  0  0  0  0  0  0  0  0  0
  -21.6911   -2.6978  -30.9327 C   0  0  0  0  0  0  0  0  0  0  0  0
  -21.4704    7.6964  -31.1201 C   0  0  0  0  0  0  0  0  0  0  0  0
  -21.0789    8.1086  -29.8407 C   0  0  0  0  0  0  0  0  0  0  0  0
  -20.4809   -0.1447  -31.0072 C   0  0  0  0  0  0  0  0  0  0  0  0
  -20.2598   -2.6385  -30.9177 C   0  0  0  0  0  0  0  0  0  0  0  0
  -19.7094   -1.3508  -30.8783 C   0  0  0  0  0  0  0  0  0  0  0  0
  -19.5930   -3.9021  -31.0520 C   0  0  0  0  0  0  0  0  0  0  0  0
  -29.4731    2.6940  -34.3464 O   0  0  0  0  0  0  0  0  0  0  0  0
  -28.4932    4.4046  -35.9394 O   0  0  0  0  0  0  0  0  0  0  0  0
  -28.0710    3.1540  -31.5654 O   0  0  0  0  0  0  0  0  0  0  0  0
  -26.3186    7.2005  -31.9306 O   0  0  0  0  0  0  0  0  0  0  0  0
  -26.3754    7.4134  -29.3374 O   0  0  0  0  0  0  0  0  0  0  0  0
  -25.9205   -0.7671  -30.9335 O   0  0  0  0  0  0  0  0  0  0  0  0
  -22.7217    5.1877  -33.0925 O   0  0  0  0  0  0  0  0  0  0  0  0
  -20.3077   -5.0383  -30.8608 O   0  0  0  0  0  0  0  0  0  0  0  0
  -29.7432    5.3993  -32.5211 N   0  0  0  0  0  0  0  0  0  0  0  0
  -28.0881    6.2051  -30.3216 N   0  0  0  0  0  0  0  0  0  0  0  0
  -27.0954    4.4719  -33.2286 N   0  0  0  0  0  0  0  0  0  0  0  0
  -25.1051    1.7584  -31.1861 N   0  0  0  0  0  0  0  0  0  0  0  0
  -24.1427    5.1211  -30.3412 N   0  0  0  0  0  0  0  0  0  0  0  0
  -23.8148   -1.6038  -30.9310 N   0  0  0  0  0  0  0  0  0  0  0  0
  -23.1433    7.3878  -33.5048 N   0  0  0  0  0  0  0  0  0  0  0  0
  -28.7593    3.9871  -34.5856 S   0  0  0  0  0  0  0  0  0  0  0  0
  -27.1437   -0.7554  -34.0209 F   0  0  0  0  0  0  0  0  0  0  0  0
  1  2  2  0
  1  4  1  0
  2  6  1  0
  3  7  1  0
  4  9  2  0
  5  6  1  0
  5 51  1  0
  6  8  2  0
  7 51  1  0
  7 58  1  0
  8  9  1  0
  8 52  1  0
 10 15  1  0
 10 59  1  0
 11 14  1  0
 11 53  1  0
 11 58  1  0
 12 17  1  0
 12 45  2  0
 12 53  1  0
 13 16  1  0
 13 47  2  0
 13 52  1  0
 14 15  2  0
 14 20  1  0
 15 19  1  0
 16 18  1  0
 16 46  2  0
 17 18  2  0
 17 21  1  0
 18 55  1  0
 19 25  2  0
 20 24  2  0
 21 26  1  0
 21 54  1  0
 22 23  1  0
 22 48  2  0
 22 56  1  0
 23 29  2  0
 23 54  1  0
 24 25  1  0
 26 55  1  0
 27 57  1  0
 28 31  2  0
 28 32  1  0
 28 55  1  0
 29 34  1  0
 30 32  1  0
 30 49  2  0
 30 57  1  0
 31 35  1  0
 32 37  2  0
 33 34  1  0
 33 36  1  0
 33 56  2  0
 34 39  2  0
 35 38  2  0
 36 40  1  0
 37 38  1  0
 39 41  1  0
 40 41  2  0
 40 42  1  0
 42 50  1  0
 43 58  1  0
 44 58  1  0
M  END
$$$$

     RDKit          3D

 35 39  0  0  0  0  0  0  0  0999 V2000
  -31.0829    7.5434  -27.0252 C   0  0  0  0  0  0  0  0  0  0  0  0
  -30.9459    7.3520  -29.4635 C   0  0  0  0  0  0  0  0  0  0  0  0
  -30.2418    7.0445  -30.6124 C   0  0  0  0  0  0  0  0  0  0  0  0
  -30.3088    7.2570  -28.2246 C   0  0  0  0  0  0  0  0  0  0  0  0
  -28.9665    6.9237  -28.1413 C   0  0  0  0  0  0  0  0  0  0  0  0
  -28.8964    6.6777  -30.5221 C   0  0  0  0  0  0  0  0  0  0  0  0
  -28.2772    6.6378  -29.3094 C   0  0  0  0  0  0  0  0  0  0  0  0
  -28.1450    6.3397  -31.8277 C   0  0  0  0  0  0  0  0  0  0  0  0
  -27.1237    3.8776  -31.4867 C   0  0  0  0  0  0  0  0  0  0  0  0
  -26.7801    2.6023  -31.4327 C   0  0  0  0  0  0  0  0  0  0  0  0
  -26.5374   -0.8504  -32.3246 C   0  0  0  0  0  0  0  0  0  0  0  0
  -26.1840    4.8648  -31.4332 C   0  0  0  0  0  0  0  0  0  0  0  0
  -25.7599   -0.4132  -33.5716 C   0  0  0  0  0  0  0  0  0  0  0  0
  -25.4983    2.1891  -31.2322 C   0  0  0  0  0  0  0  0  0  0  0  0
  -25.2248    0.8199  -31.1389 C   0  0  0  0  0  0  0  0  0  0  0  0
  -24.8073    4.5304  -31.2548 C   0  0  0  0  0  0  0  0  0  0  0  0
  -24.4640    3.1362  -31.1336 C   0  0  0  0  0  0  0  0  0  0  0  0
  -23.9483    0.3644  -30.9570 C   0  0  0  0  0  0  0  0  0  0  0  0
  -23.7687    5.5884  -31.5368 C   0  0  0  0  0  0  0  0  0  0  0  0
  -22.9141    1.3022  -30.9246 C   0  0  0  0  0  0  0  0  0  0  0  0
  -22.4616   -1.4254  -30.7086 C   0  0  0  0  0  0  0  0  0  0  0  0
  -22.1916   -2.8242  -30.6392 C   0  0  0  0  0  0  0  0  0  0  0  0
  -21.3981   -0.5289  -30.7643 C   0  0  0  0  0  0  0  0  0  0  0  0
  -20.8896   -3.3077  -30.7212 C   0  0  0  0  0  0  0  0  0  0  0  0
  -20.0920   -1.0113  -30.8213 C   0  0  0  0  0  0  0  0  0  0  0  0
  -19.8553   -2.3827  -30.8293 C   0  0  0  0  0  0  0  0  0  0  0  0
  -19.4960   -5.3647  -30.6688 C   0  0  0  0  0  0  0  0  0  0  0  0
  -27.8786   -1.1950  -32.3522 O   0  0  0  0  0  0  0  0  0  0  0  0
  -26.2295   -0.1040  -31.1898 O   0  0  0  0  0  0  0  0  0  0  0  0
  -26.6921    6.1991  -31.5849 N   0  0  0  0  0  0  0  0  0  0  0  0
  -23.7204   -0.9508  -30.7730 N   0  0  0  0  0  0  0  0  0  0  0  0
  -23.1799    2.6661  -30.9730 N   0  0  0  0  0  0  0  0  0  0  0  0
  -21.6193    0.8267  -30.8504 N   0  0  0  0  0  0  0  0  0  0  0  0
  -20.6569   -4.6937  -30.7499 N   0  0  0  0  0  0  0  0  0  0  0  0
  -31.2216    7.2104  -32.0221 Cl  0  0  0  0  0  0  0  0  0  0  0  0
  1  4  1  0
  2  3  2  0
  2  4  1  0
  3  6  1  0
  3 35  1  0
  4  5  2  0
  5  7  1  0
  6  7  2  0
  6  8  1  0
  8 30  1  0
  9 10  2  0
  9 12  1  0
 10 14  1  0
 11 13  1  0
 11 28  2  0
 11 29  1  0
 12 16  1  0
 12 30  2  3
 14 15  1  0
 14 17  2  0
 15 18  2  0
 15 29  1  0
 16 17  1  0
 16 19  1  0
 17 32  1  0
 18 20  1  0
 18 31  1  0
 20 32  2  0
 20 33  1  0
 21 22  1  0
 21 23  1  0
 21 31  2  0
 22 24  1  0
 23 25  1  0
 23 33  2  0
 24 26  2  0
 24 34  1  0
 25 26  1  0
 27 34  1  0
M  END
$$$$

     RDKit          3D

 22 23  0  0  0  0  0  0  0  0999 V2000
  -28.9716   -0.0923  -34.0041 C   0  0  0  0  0  0  0  0  0  0  0  0
  -27.5638   -0.0405  -33.5053 C   0  0  0  0  0  0  0  0  0  0  0  0
  -27.1904   -0.7975  -32.3746 C   0  0  0  0  0  0  0  0  0  0  0  0
  -26.6092    0.7405  -34.1856 C   0  0  0  0  0  0  0  0  0  0  0  0
  -25.8725   -0.7623  -31.9547 C   0  0  0  0  0  0  0  0  0  0  0  0
  -25.2839    0.7952  -33.7391 C   0  0  0  0  0  0  0  0  0  0  0  0
  -24.9000    0.0353  -32.6090 C   0  0  0  0  0  0  0  0  0  0  0  0
  -24.8829    3.5687  -32.6268 C   0  0  0  0  0  0  0  0  0  0  0  0
  -24.2996    1.6865  -34.4201 C   0  0  0  0  0  0  0  0  0  0  0  0
  -24.3730    4.8495  -31.8495 C   0  0  0  0  0  0  0  0  0  0  0  0
  -24.1239    3.0331  -33.8949 C   0  0  0  0  0  0  0  0  0  0  0  0
  -23.4603   -0.0144  -32.1224 C   0  0  0  0  0  0  0  0  0  0  0  0
  -23.5308    1.2147  -35.5003 C   0  0  0  0  0  0  0  0  0  0  0  0
  -23.2576    3.8440  -34.6152 C   0  0  0  0  0  0  0  0  0  0  0  0
  -23.1996    4.5535  -30.9124 C   0  0  0  0  0  0  0  0  0  0  0  0
  -22.6423    2.1073  -36.1432 C   0  0  0  0  0  0  0  0  0  0  0  0
  -22.5223    3.4298  -35.7122 C   0  0  0  0  0  0  0  0  0  0  0  0
  -21.5486    4.4194  -36.3289 C   0  0  0  0  0  0  0  0  0  0  0  0
  -22.9112    5.2842  -29.9364 O   0  0  0  0  0  0  0  0  0  0  0  0
  -22.4524    3.5956  -31.2104 O   0  0  0  0  0  0  0  0  0  0  0  0
  -21.8065    1.7111  -37.1264 O   0  0  0  0  0  0  0  0  0  0  0  0
  -29.7979   -0.3938  -33.1601 F   0  0  0  0  0  0  0  0  0  0  0  0
  1  2  1  0
  1 22  1  0
  2  3  1  0
  2  4  1  0
  3  5  2  0
  4  6  2  0
  5  7  1  0
  6  7  1  0
  6  9  1  0
  7 12  1  0
  8 10  1  0
  8 11  1  0
  9 11  2  0
  9 13  1  0
 10 15  1  0
 11 14  1  0
 13 16  2  0
 14 17  2  0
 15 19  2  0
 15 20  1  0
 16 17  1  0
 16 21  1  0
 17 18  1  0
M  END
$$$$

     RDKit          3D

 26 29  0  0  0  0  0  0  0  0999 V2000
  -26.0628    2.3428  -31.0698 C   0  0  0  0  0  0  0  0  0  0  0  0
  -25.5090   -0.8673  -34.5021 C   0  0  0  0  0  0  0  0  0  0  0  0
  -25.4615    0.5817  -32.5778 C   0  0  0  0  0  0  0  0  0  0  0  0
  -25.4945    1.6135  -34.8355 C   0  0  0  0  0  0  0  0  0  0  0  0
  -25.1184   -0.6145  -31.6396 C   0  0  0  0  0  0  0  0  0  0  0  0
  -25.0020    2.9690  -34.2729 C   0  0  0  0  0  0  0  0  0  0  0  0
  -24.9353    0.4331  -33.9986 C   0  0  0  0  0  0  0  0  0  0  0  0
  -24.8692    1.8326  -31.8499 C   0  0  0  0  0  0  0  0  0  0  0  0
  -24.8050    4.0216  -36.6333 C   0  0  0  0  0  0  0  0  0  0  0  0
  -24.9478    5.5922  -36.6244 C   0  0  0  0  0  0  0  0  0  0  0  0
  -24.3007    2.8728  -32.8761 C   0  0  0  0  0  0  0  0  0  0  0  0
  -24.3761    4.3061  -32.3317 C   0  0  0  0  0  0  0  0  0  0  0  0
  -24.0816    3.6640  -35.3275 C   0  0  0  0  0  0  0  0  0  0  0  0
  -24.1647    5.3719  -33.3655 C   0  0  0  0  0  0  0  0  0  0  0  0
  -23.7292   -0.2440  -30.9937 C   0  0  0  0  0  0  0  0  0  0  0  0
  -23.7617    1.3484  -30.8563 C   0  0  0  0  0  0  0  0  0  0  0  0
  -23.8265    7.4781  -35.4043 C   0  0  0  0  0  0  0  0  0  0  0  0
  -23.4679    4.9630  -34.7503 C   0  0  0  0  0  0  0  0  0  0  0  0
  -23.6874    6.0540  -35.8213 C   0  0  0  0  0  0  0  0  0  0  0  0
  -21.5106   -1.4567  -30.9632 C   0  0  0  0  0  0  0  0  0  0  0  0
  -20.7991   -2.8055  -30.8007 C   0  0  0  0  0  0  0  0  0  0  0  0
  -26.0412   -1.0192  -30.8399 O   0  0  0  0  0  0  0  0  0  0  0  0
  -24.8371    7.7866  -34.6246 O   0  0  0  0  0  0  0  0  0  0  0  0
  -23.1813    8.3496  -36.1470 O   0  0  0  0  0  0  0  0  0  0  0  0
  -22.8059   -1.6748  -31.5255 O   0  0  0  0  0  0  0  0  0  0  0  0
  -20.0613   -2.7647  -29.5781 O   0  0  0  0  0  0  0  0  0  0  0  0
  1  8  1  0
  2  7  1  0
  3  5  1  0
  3  7  1  0
  3  8  1  0
  4  6  1  0
  4  7  1  0
  5 15  1  0
  5 22  1  0
  6 11  1  0
  6 13  1  0
  8 11  1  0
  8 16  1  0
  9 10  1  0
  9 13  1  0
 10 19  1  0
 11 12  1  0
 12 14  1  0
 13 18  1  0
 14 18  1  0
 15 16  1  0
 15 25  1  0
 17 19  1  0
 17 23  2  0
 17 24  1  0
 18 19  1  0
 20 21  1  0
 20 25  1  0
 21 26  1  0
M  END
$$$$

     RDKit          3D

 31 35  0  0  0  0  0  0  0  0999 V2000
  -30.2788    5.1345  -32.7040 C   0  0  0  0  0  0  0  0  0  0  0  0
  -29.8595    6.1768  -31.8091 C   0  0  0  0  0  0  0  0  0  0  0  0
  -29.4766    0.4492  -34.4209 C   0  0  0  0  0  0  0  0  0  0  0  0
  -29.4536    3.9552  -32.8579 C   0  0  0  0  0  0  0  0  0  0  0  0
  -29.0930    1.7046  -33.7090 C   0  0  0  0  0  0  0  0  0  0  0  0
  -28.6108    6.0769  -31.1357 C   0  0  0  0  0  0  0  0  0  0  0  0
  -28.1792   -0.4638  -33.9600 C   0  0  0  0  0  0  0  0  0  0  0  0
  -28.1941    3.8716  -32.1902 C   0  0  0  0  0  0  0  0  0  0  0  0
  -27.8460    1.6489  -33.0465 C   0  0  0  0  0  0  0  0  0  0  0  0
  -27.7932    4.9520  -31.3565 C   0  0  0  0  0  0  0  0  0  0  0  0
  -26.0389   -0.0926  -32.6392 C   0  0  0  0  0  0  0  0  0  0  0  0
  -23.1943   -0.2027  -31.0339 C   0  0  0  0  0  0  0  0  0  0  0  0
  -22.9819    0.8742  -31.9724 C   0  0  0  0  0  0  0  0  0  0  0  0
  -22.5141    3.1461  -33.7132 C   0  0  0  0  0  0  0  0  0  0  0  0
  -22.0609   -0.8328  -30.4399 C   0  0  0  0  0  0  0  0  0  0  0  0
  -22.2034    4.0039  -34.8915 C   0  0  0  0  0  0  0  0  0  0  0  0
  -21.6544    1.2788  -32.3052 C   0  0  0  0  0  0  0  0  0  0  0  0
  -21.0792    5.8536  -36.8072 C   0  0  0  0  0  0  0  0  0  0  0  0
  -20.7606   -0.3911  -30.8393 C   0  0  0  0  0  0  0  0  0  0  0  0
  -20.9072    3.7913  -35.6095 C   0  0  0  0  0  0  0  0  0  0  0  0
  -20.0658    2.5947  -33.5926 C   0  0  0  0  0  0  0  0  0  0  0  0
  -19.9758    2.8469  -35.0639 C   0  0  0  0  0  0  0  0  0  0  0  0
  -27.4011    2.7554  -32.3451 O   0  0  0  0  0  0  0  0  0  0  0  0
  -25.4131   -0.8101  -33.3843 O   0  0  0  0  0  0  0  0  0  0  0  0
  -20.9120    4.4389  -36.8712 O   0  0  0  0  0  0  0  0  0  0  0  0
  -29.8601    2.8524  -33.6051 N   0  0  0  0  0  0  0  0  0  0  0  0
  -27.1365    0.4517  -33.1039 N   0  0  0  0  0  0  0  0  0  0  0  0
  -25.6661    0.0923  -31.2899 N   0  0  0  0  0  0  0  0  0  0  0  0
  -24.5165   -0.5626  -30.6750 N   0  0  0  0  0  0  0  0  0  0  0  0
  -21.4353    2.3625  -33.1709 N   0  0  0  0  0  0  0  0  0  0  0  0
  -20.5860    0.6171  -31.7123 N   0  0  0  0  0  0  0  0  0  0  0  0
  1  2  1  0
  1  4  1  0
  2  6  2  0
  3  5  1  0
  3  7  1  0
  4  8  1  0
  4 26  2  0
  5  9  2  0
  5 26  1  0
  6 10  1  0
  7 27  1  0
  8 10  2  0
  8 23  1  0
  9 23  1  0
  9 27  1  0
 11 24  2  0
 11 27  1  0
 11 28  1  0
 12 13  1  0
 12 15  1  0
 12 29  2  3
 13 17  2  0
 14 16  1  0
 14 30  1  0
 15 19  1  0
 16 20  2  0
 17 30  1  0
 17 31  1  0
 18 25  1  0
 19 31  2  0
 20 22  1  0
 20 25  1  0
 21 22  1  0
 21 30  1  0
 28 29  1  0
M  END
$$$$

     RDKit          3D

 35 39  0  0  0  0  0  0  0  0999 V2000
  -29.0480    2.6706  -33.2607 C   0  0  0  0  0  0  0  0  0  0  0  0
  -28.6965    3.9580  -32.8664 C   0  0  0  0  0  0  0  0  0  0  0  0
  -28.0355    1.7777  -33.7819 C   0  0  0  0  0  0  0  0  0  0  0  0
  -27.2924   -0.3930  -34.0098 C   0  0  0  0  0  0  0  0  0  0  0  0
  -27.3590    4.4321  -33.0206 C   0  0  0  0  0  0  0  0  0  0  0  0
  -26.6720    2.2555  -33.8441 C   0  0  0  0  0  0  0  0  0  0  0  0
  -26.3944    3.5690  -33.4968 C   0  0  0  0  0  0  0  0  0  0  0  0
  -24.9842    4.1779  -33.6003 C   0  0  0  0  0  0  0  0  0  0  0  0
  -24.3265    3.6141  -35.9356 C   0  0  0  0  0  0  0  0  0  0  0  0
  -24.4078    4.4481  -32.2272 C   0  0  0  0  0  0  0  0  0  0  0  0
  -24.0388    3.5286  -34.5574 C   0  0  0  0  0  0  0  0  0  0  0  0
  -23.5138    2.9596  -36.8725 C   0  0  0  0  0  0  0  0  0  0  0  0
  -23.3438   -1.8528  -30.7638 C   0  0  0  0  0  0  0  0  0  0  0  0
  -23.3590   -0.5848  -31.4256 C   0  0  0  0  0  0  0  0  0  0  0  0
  -23.1153    3.7285  -31.8389 C   0  0  0  0  0  0  0  0  0  0  0  0
  -22.9283    2.7577  -34.0663 C   0  0  0  0  0  0  0  0  0  0  0  0
  -22.4060    2.2180  -36.4054 C   0  0  0  0  0  0  0  0  0  0  0  0
  -22.0638   -2.4313  -30.4703 C   0  0  0  0  0  0  0  0  0  0  0  0
  -22.0978    2.1219  -35.0189 C   0  0  0  0  0  0  0  0  0  0  0  0
  -20.9587   -0.3217  -31.3247 C   0  0  0  0  0  0  0  0  0  0  0  0
  -20.8377   -1.7527  -30.8363 C   0  0  0  0  0  0  0  0  0  0  0  0
  -20.4884    1.7586  -32.0392 C   0  0  0  0  0  0  0  0  0  0  0  0
  -19.8355   -4.1266  -30.5686 C   0  0  0  0  0  0  0  0  0  0  0  0
  -19.5700   -2.5917  -30.7824 C   0  0  0  0  0  0  0  0  0  0  0  0
  -19.6583    3.0052  -32.3771 C   0  0  0  0  0  0  0  0  0  0  0  0
  -19.4880    3.7553  -31.0739 C   0  0  0  0  0  0  0  0  0  0  0  0
  -28.3921    0.5256  -34.2175 O   0  0  0  0  0  0  0  0  0  0  0  0
  -21.5889    1.6369  -37.3621 O   0  0  0  0  0  0  0  0  0  0  0  0
  -20.6931   -4.5489  -29.7437 O   0  0  0  0  0  0  0  0  0  0  0  0
  -19.1336   -5.0696  -31.1644 O   0  0  0  0  0  0  0  0  0  0  0  0
  -22.7539    2.5749  -32.6608 N   0  0  0  0  0  0  0  0  0  0  0  0
  -22.1575    0.2537  -31.6524 N   0  0  0  0  0  0  0  0  0  0  0  0
  -21.8570    1.6411  -32.1552 N   0  0  0  0  0  0  0  0  0  0  0  0
  -19.9673    0.5720  -31.5572 N   0  0  0  0  0  0  0  0  0  0  0  0
  -18.3996    2.6507  -32.7462 F   0  0  0  0  0  0  0  0  0  0  0  0
  1  2  2  0
  1  3  1  0
  2  5  1  0
  3  6  2  0
  3 27  1  0
  4 27  1  0
  5  7  2  0
  6  7  1  0
  7  8  1  0
  8 10  1  0
  8 11  1  0
  9 11  2  0
  9 12  1  0
 10 15  1  0
 11 16  1  0
 12 17  2  0
 13 14  1  0
 13 18  2  0
 14 32  1  0
 15 31  1  0
 16 19  2  0
 16 31  1  0
 17 19  1  0
 17 28  1  0
 18 21  1  0
 20 21  2  0
 20 32  1  0
 20 34  1  0
 21 24  1  0
 22 25  1  0
 22 33  1  0
 22 34  2  0
 23 24  1  0
 23 29  2  0
 23 30  1  0
 25 26  1  0
 25 35  1  0
 31 33  1  0
 32 33  1  0
M  END
$$$$

     RDKit          3D

 45 53  0  0  0  0  0  0  0  0999 V2000
  -32.7902    0.8380  -33.7829 C   0  0  0  0  0  0  0  0  0  0  0  0
  -32.9162    2.1464  -33.4822 C   0  0  0  0  0  0  0  0  0  0  0  0
  -32.1748    4.3555  -33.2802 C   0  0  0  0  0  0  0  0  0  0  0  0
  -31.8142    3.0259  -33.5471 C   0  0  0  0  0  0  0  0  0  0  0  0
  -31.4462    0.3653  -34.0021 C   0  0  0  0  0  0  0  0  0  0  0  0
  -31.2108    5.3561  -33.5535 C   0  0  0  0  0  0  0  0  0  0  0  0
  -30.5499    2.6345  -33.9682 C   0  0  0  0  0  0  0  0  0  0  0  0
  -30.3666    1.2304  -34.1492 C   0  0  0  0  0  0  0  0  0  0  0  0
  -29.9509    5.0225  -33.9931 C   0  0  0  0  0  0  0  0  0  0  0  0
  -29.5850    3.6965  -34.2228 C   0  0  0  0  0  0  0  0  0  0  0  0
  -28.1953    3.4347  -34.6449 C   0  0  0  0  0  0  0  0  0  0  0  0
  -27.8277    3.9590  -35.9187 C   0  0  0  0  0  0  0  0  0  0  0  0
  -27.2439    2.7248  -33.8883 C   0  0  0  0  0  0  0  0  0  0  0  0
  -26.4638    1.5641  -31.7868 C   0  0  0  0  0  0  0  0  0  0  0  0
  -26.5798    3.7157  -36.4827 C   0  0  0  0  0  0  0  0  0  0  0  0
  -26.2071    0.2347  -32.0958 C   0  0  0  0  0  0  0  0  0  0  0  0
  -25.9829    2.4801  -34.4746 C   0  0  0  0  0  0  0  0  0  0  0  0
  -25.6607    2.2289  -30.8401 C   0  0  0  0  0  0  0  0  0  0  0  0
  -25.6530    2.9648  -35.7612 C   0  0  0  0  0  0  0  0  0  0  0  0
  -25.0683   -0.3714  -31.6227 C   0  0  0  0  0  0  0  0  0  0  0  0
  -24.9693    4.0915  -38.3665 C   0  0  0  0  0  0  0  0  0  0  0  0
  -24.5242    1.5673  -30.3082 C   0  0  0  0  0  0  0  0  0  0  0  0
  -24.2013    0.2775  -30.7441 C   0  0  0  0  0  0  0  0  0  0  0  0
  -24.1752    2.9503  -37.7509 C   0  0  0  0  0  0  0  0  0  0  0  0
  -23.4552    1.8566  -35.6328 C   0  0  0  0  0  0  0  0  0  0  0  0
  -22.8964   -1.6993  -30.6239 C   0  0  0  0  0  0  0  0  0  0  0  0
  -22.1219    2.5847  -35.5687 C   0  0  0  0  0  0  0  0  0  0  0  0
  -21.7076   -2.3565  -30.4531 C   0  0  0  0  0  0  0  0  0  0  0  0
  -21.7979    0.3908  -30.1648 C   0  0  0  0  0  0  0  0  0  0  0  0
  -21.8671    1.5816  -33.2936 C   0  0  0  0  0  0  0  0  0  0  0  0
  -21.5046    1.7799  -30.7163 C   0  0  0  0  0  0  0  0  0  0  0  0
  -21.4392   -3.7224  -30.6582 C   0  0  0  0  0  0  0  0  0  0  0  0
  -20.8477    1.8130  -32.1236 C   0  0  0  0  0  0  0  0  0  0  0  0
  -20.5592   -1.6794  -30.0715 C   0  0  0  0  0  0  0  0  0  0  0  0
  -20.5706   -0.3037  -29.7391 C   0  0  0  0  0  0  0  0  0  0  0  0
  -20.3693    3.3051  -34.0307 C   0  0  0  0  0  0  0  0  0  0  0  0
  -20.0491   -3.8413  -30.3335 C   0  0  0  0  0  0  0  0  0  0  0  0
  -20.2073    3.1661  -32.4814 C   0  0  0  0  0  0  0  0  0  0  0  0
  -19.4682   -2.5933  -29.9878 C   0  0  0  0  0  0  0  0  0  0  0  0
  -23.4316    2.3512  -38.5082 O   0  0  0  0  0  0  0  0  0  0  0  0
  -27.5179    2.2587  -32.5690 N   0  0  0  0  0  0  0  0  0  0  0  0
  -26.2811    4.2703  -37.7740 N   0  0  0  0  0  0  0  0  0  0  0  0
  -24.4222    2.6613  -36.3954 N   0  0  0  0  0  0  0  0  0  0  0  0
  -22.9632   -0.3274  -30.4557 N   0  0  0  0  0  0  0  0  0  0  0  0
  -21.2162    2.1439  -34.5008 N   0  0  0  0  0  0  0  0  0  0  0  0
  1  2  2  0
  1  5  1  0
  2  4  1  0
  3  4  1  0
  3  6  1  0
  4  7  2  0
  5  8  2  0
  6  9  2  0
  7  8  1  0
  7 10  1  0
  9 10  1  0
 10 11  1  0
 11 12  1  0
 11 13  2  0
 12 15  2  0
 13 17  1  0
 13 41  1  0
 14 16  2  0
 14 18  1  0
 14 41  1  0
 15 19  1  0
 15 42  1  0
 16 20  1  0
 17 19  2  0
 18 22  2  0
 19 43  1  0
 20 23  2  0
 21 24  1  0
 21 42  1  0
 22 23  1  0
 23 44  1  0
 24 40  2  0
 24 43  1  0
 25 27  1  0
 25 43  1  0
 26 28  2  0
 26 44  1  0
 27 45  1  0
 28 32  1  0
 28 34  1  0
 29 31  1  0
 29 35  1  0
 29 44  1  0
 30 33  1  0
 30 45  1  0
 31 33  1  0
 32 37  1  0
 33 38  1  0
 34 35  1  0
 34 39  1  0
 36 38  1  0
 36 45  1  0
 37 39  1  0
M  END
$$$$

     RDKit          3D

 56 58  0  0  0  0  0  0  0  0999 V2000
  -32.5290   -0.0472  -36.3274 C   0  0  0  0  0  0  0  0  0  0  0  0
  -32.7789    0.8876  -37.4581 C   0  0  0  0  0  0  0  0  0  0  0  0
  -31.3490    0.4308  -35.4770 C   0  0  0  0  0  0  0  0  0  0  0  0
  -29.9910   -0.3829  -33.5477 C   0  0  0  0  0  0  0  0  0  0  0  0
  -30.1301    0.6798  -36.2792 C   0  0  0  0  0  0  0  0  0  0  0  0
  -29.0612   -1.5856  -33.6372 C   0  0  0  0  0  0  0  0  0  0  0  0
  -29.1608    0.8825  -33.9150 C   0  0  0  0  0  0  0  0  0  0  0  0
  -27.8528   -1.4861  -32.7773 C   0  0  0  0  0  0  0  0  0  0  0  0
  -27.6763    0.6526  -33.9700 C   0  0  0  0  0  0  0  0  0  0  0  0
  -27.0932   -0.1629  -32.8614 C   0  0  0  0  0  0  0  0  0  0  0  0
  -26.8819    1.8394  -34.4346 C   0  0  0  0  0  0  0  0  0  0  0  0
  -25.5310    1.6891  -34.9543 C   0  0  0  0  0  0  0  0  0  0  0  0
  -25.4937    3.8572  -30.9071 C   0  0  0  0  0  0  0  0  0  0  0  0
  -24.9808   -0.8256  -31.7213 C   0  0  0  0  0  0  0  0  0  0  0  0
  -24.6339    2.4733  -35.8392 C   0  0  0  0  0  0  0  0  0  0  0  0
  -24.7044    5.7319  -32.3374 C   0  0  0  0  0  0  0  0  0  0  0  0
  -24.4354    4.6956  -31.3645 C   0  0  0  0  0  0  0  0  0  0  0  0
  -23.9788    3.6324  -35.1736 C   0  0  0  0  0  0  0  0  0  0  0  0
  -23.4707   -0.9633  -31.7291 C   0  0  0  0  0  0  0  0  0  0  0  0
  -23.1600    4.4796  -36.1317 C   0  0  0  0  0  0  0  0  0  0  0  0
  -23.0778    4.5106  -30.7790 C   0  0  0  0  0  0  0  0  0  0  0  0
  -22.9219   -1.9461  -30.8467 C   0  0  0  0  0  0  0  0  0  0  0  0
  -22.9193    2.5437  -33.1929 C   0  0  0  0  0  0  0  0  0  0  0  0
  -22.8333    4.2774  -28.2224 C   0  0  0  0  0  0  0  0  0  0  0  0
  -22.8347    5.0794  -29.3712 C   0  0  0  0  0  0  0  0  0  0  0  0
  -22.4768    4.8602  -26.9840 C   0  0  0  0  0  0  0  0  0  0  0  0
  -22.4901    6.4214  -29.3113 C   0  0  0  0  0  0  0  0  0  0  0  0
  -21.9622    2.8145  -30.8471 C   0  0  0  0  0  0  0  0  0  0  0  0
  -22.2033    6.2437  -26.9146 C   0  0  0  0  0  0  0  0  0  0  0  0
  -22.1723    7.0111  -28.0582 C   0  0  0  0  0  0  0  0  0  0  0  0
  -21.7123    2.9672  -32.3726 C   0  0  0  0  0  0  0  0  0  0  0  0
  -21.5489   -2.3329  -31.0158 C   0  0  0  0  0  0  0  0  0  0  0  0
  -21.4633    1.4153  -30.1101 C   0  0  0  0  0  0  0  0  0  0  0  0
  -20.5010    2.1402  -32.8276 C   0  0  0  0  0  0  0  0  0  0  0  0
  -19.9848   -2.1009  -29.1385 C   0  0  0  0  0  0  0  0  0  0  0  0
  -20.1689    0.9731  -30.7453 C   0  0  0  0  0  0  0  0  0  0  0  0
  -19.8093   -3.9310  -30.8024 C   0  0  0  0  0  0  0  0  0  0  0  0
  -19.8903    2.4264  -34.1778 C   0  0  0  0  0  0  0  0  0  0  0  0
  -19.5338    2.0540  -31.7006 C   0  0  0  0  0  0  0  0  0  0  0  0
  -19.0614   -1.1877  -29.8597 C   0  0  0  0  0  0  0  0  0  0  0  0
  -19.1822    0.2661  -29.9363 C   0  0  0  0  0  0  0  0  0  0  0  0
  -31.1183   -0.5338  -34.4215 O   0  0  0  0  0  0  0  0  0  0  0  0
  -29.5283    1.9472  -33.1423 O   0  0  0  0  0  0  0  0  0  0  0  0
  -25.6706   -1.0591  -30.7352 O   0  0  0  0  0  0  0  0  0  0  0  0
  -25.6710   -0.4588  -32.8049 O   0  0  0  0  0  0  0  0  0  0  0  0
  -25.6798    5.5619  -33.1187 O   0  0  0  0  0  0  0  0  0  0  0  0
  -23.9099    6.6751  -32.5585 O   0  0  0  0  0  0  0  0  0  0  0  0
  -23.4276    1.4221  -32.9758 O   0  0  0  0  0  0  0  0  0  0  0  0
  -23.2198    3.4886  -34.0503 O   0  0  0  0  0  0  0  0  0  0  0  0
  -23.0808    3.1958  -30.6545 O   0  0  0  0  0  0  0  0  0  0  0  0
  -22.2989    4.0076  -25.9083 O   0  0  0  0  0  0  0  0  0  0  0  0
  -21.7846    8.3398  -28.0684 O   0  0  0  0  0  0  0  0  0  0  0  0
  -20.7155   -2.9981  -29.9673 O   0  0  0  0  0  0  0  0  0  0  0  0
  -20.5412    2.2504  -35.2761 O   0  0  0  0  0  0  0  0  0  0  0  0
  -20.0652   -2.0305  -27.9220 O   0  0  0  0  0  0  0  0  0  0  0  0
  -18.6086    2.5319  -34.2516 O   0  0  0  0  0  0  0  0  0  0  0  0
  1  2  1  0
  1  3  1  0
  3  5  1  0
  3 42  1  0
  4  6  1  0
  4  7  1  0
  4 42  1  0
  6  8  1  0
  7  9  1  0
  7 43  1  0
  8 10  1  0
  9 10  1  0
  9 11  1  0
 10 45  1  0
 11 12  1  0
 12 15  1  0
 13 17  1  0
 14 19  1  0
 14 44  2  0
 14 45  1  0
 15 18  1  0
 16 17  1  0
 16 46  2  0
 16 47  1  0
 17 21  1  0
 18 20  1  0
 18 49  1  0
 19 22  2  3
 21 25  1  0
 21 50  1  0
 22 32  1  0
 23 31  1  0
 23 48  2  0
 23 49  1  0
 24 25  2  0
 24 26  1  0
 25 27  1  0
 26 29  2  0
 26 51  1  0
 27 30  2  0
 28 31  1  0
 28 33  1  0
 28 50  1  0
 29 30  1  0
 30 52  1  0
 31 34  1  0
 33 36  1  0
 34 38  1  0
 34 39  1  0
 35 40  1  0
 35 53  1  0
 35 55  2  0
 36 39  1  0
 36 41  1  0
 37 53  1  0
 38 54  2  0
 38 56  1  0
 40 41  1  0
M  END
$$$$

     RDKit          3D

 44 48  0  0  0  0  0  0  0  0999 V2000
  -29.9606    7.4222  -29.6230 C   0  0  0  0  0  0  0  0  0  0  0  0
  -29.5768    6.9533  -30.9906 C   0  0  0  0  0  0  0  0  0  0  0  0
  -29.4735    8.1007  -32.0092 C   0  0  0  0  0  0  0  0  0  0  0  0
  -28.6747    4.9712  -31.8770 C   0  0  0  0  0  0  0  0  0  0  0  0
  -28.1159    2.7063  -32.5454 C   0  0  0  0  0  0  0  0  0  0  0  0
  -27.2416    6.3126  -30.3660 C   0  0  0  0  0  0  0  0  0  0  0  0
  -26.9886    1.9460  -34.4977 C   0  0  0  0  0  0  0  0  0  0  0  0
  -26.9468    4.1941  -35.6445 C   0  0  0  0  0  0  0  0  0  0  0  0
  -26.4727    4.1758  -31.3428 C   0  0  0  0  0  0  0  0  0  0  0  0
  -26.4015    0.6821  -34.2386 C   0  0  0  0  0  0  0  0  0  0  0  0
  -26.3126    2.8450  -35.2955 C   0  0  0  0  0  0  0  0  0  0  0  0
  -26.1974    5.3020  -30.5235 C   0  0  0  0  0  0  0  0  0  0  0  0
  -25.4333    3.1913  -31.4419 C   0  0  0  0  0  0  0  0  0  0  0  0
  -25.0631    0.4194  -34.6690 C   0  0  0  0  0  0  0  0  0  0  0  0
  -25.0005    2.5867  -35.7851 C   0  0  0  0  0  0  0  0  0  0  0  0
  -24.6400    1.2399  -30.4142 C   0  0  0  0  0  0  0  0  0  0  0  0
  -24.3815    1.3808  -35.4472 C   0  0  0  0  0  0  0  0  0  0  0  0
  -24.2734    3.3346  -32.2045 C   0  0  0  0  0  0  0  0  0  0  0  0
  -23.8969    6.1235  -29.9124 C   0  0  0  0  0  0  0  0  0  0  0  0
  -23.5843    1.2218  -31.3380 C   0  0  0  0  0  0  0  0  0  0  0  0
  -23.2661   -1.2937  -31.2669 C   0  0  0  0  0  0  0  0  0  0  0  0
  -23.3135    2.3317  -32.1511 C   0  0  0  0  0  0  0  0  0  0  0  0
  -23.3382    6.5882  -31.1157 C   0  0  0  0  0  0  0  0  0  0  0  0
  -22.9832    1.2513  -36.0018 C   0  0  0  0  0  0  0  0  0  0  0  0
  -23.1541    6.3086  -28.7424 C   0  0  0  0  0  0  0  0  0  0  0  0
  -22.7289    0.0187  -31.3251 C   0  0  0  0  0  0  0  0  0  0  0  0
  -22.4274   -2.3780  -31.1810 C   0  0  0  0  0  0  0  0  0  0  0  0
  -22.0314    7.1427  -31.1246 C   0  0  0  0  0  0  0  0  0  0  0  0
  -21.8817    6.9339  -28.7532 C   0  0  0  0  0  0  0  0  0  0  0  0
  -21.3386    0.1675  -31.3059 C   0  0  0  0  0  0  0  0  0  0  0  0
  -21.2647    7.2732  -29.9509 C   0  0  0  0  0  0  0  0  0  0  0  0
  -20.9973   -2.1985  -31.1200 C   0  0  0  0  0  0  0  0  0  0  0  0
  -20.4963   -0.9025  -31.1880 C   0  0  0  0  0  0  0  0  0  0  0  0
  -29.7117    4.8970  -32.5573 O   0  0  0  0  0  0  0  0  0  0  0  0
  -27.0272    7.2959  -29.6230 O   0  0  0  0  0  0  0  0  0  0  0  0
  -28.4406    6.0932  -31.0597 N   0  0  0  0  0  0  0  0  0  0  0  0
  -28.1971    2.4364  -33.9423 N   0  0  0  0  0  0  0  0  0  0  0  0
  -27.6811    3.9672  -31.9632 N   0  0  0  0  0  0  0  0  0  0  0  0
  -25.5487    2.1805  -30.5811 N   0  0  0  0  0  0  0  0  0  0  0  0
  -25.0724    5.4451  -29.7974 N   0  0  0  0  0  0  0  0  0  0  0  0
  -19.1982   -0.7046  -31.1615 F   0  0  0  0  0  0  0  0  0  0  0  0
  -27.3263   -0.6027  -33.3986 Cl  0  0  0  0  0  0  0  0  0  0  0  0
  -24.9500   -1.3403  -31.2755 Cl  0  0  0  0  0  0  0  0  0  0  0  0
  -24.0651    6.4224  -32.6911 Cl  0  0  0  0  0  0  0  0  0  0  0  0
  1  2  1  0
  2  3  1  0
  2 36  1  0
  4 34  2  0
  4 36  1  0
  4 38  1  0
  5 37  1  0
  5 38  1  0
  6 12  1  0
  6 35  2  0
  6 36  1  0
  7 10  2  0
  7 11  1  0
  7 37  1  0
  8 11  1  0
  9 12  2  0
  9 13  1  0
  9 38  1  0
 10 14  1  0
 10 42  1  0
 11 15  2  0
 12 40  1  0
 13 18  1  0
 13 39  2  0
 14 17  2  0
 15 17  1  0
 16 20  2  0
 16 39  1  0
 17 24  1  0
 18 22  2  0
 19 23  2  0
 19 25  1  0
 19 40  1  0
 20 22  1  0
 20 26  1  0
 21 26  1  0
 21 27  2  0
 21 43  1  0
 23 28  1  0
 23 44  1  0
 25 29  2  0
 26 30  1  0
 27 32  1  0
 28 31  2  0
 29 31  1  0
 30 33  2  0
 32 33  1  0
 33 41  1  0
M  END
$$$$

     RDKit          3D

 25 28  0  0  0  0  0  0  0  0999 V2000
  -28.5168   -0.2452  -32.9310 C   0  0  0  0  0  0  0  0  0  0  0  0
  -28.5994    0.6948  -33.9700 C   0  0  0  0  0  0  0  0  0  0  0  0
  -27.2377   -0.5141  -32.3460 C   0  0  0  0  0  0  0  0  0  0  0  0
  -27.4405    1.3466  -34.4466 C   0  0  0  0  0  0  0  0  0  0  0  0
  -26.1050    0.1567  -32.8394 C   0  0  0  0  0  0  0  0  0  0  0  0
  -26.1837    1.0665  -33.9186 C   0  0  0  0  0  0  0  0  0  0  0  0
  -25.5006   -1.1139  -31.1903 C   0  0  0  0  0  0  0  0  0  0  0  0
  -25.6969    5.4811  -30.0230 C   0  0  0  0  0  0  0  0  0  0  0  0
  -24.9602    1.6644  -34.4794 C   0  0  0  0  0  0  0  0  0  0  0  0
  -24.5031    2.8054  -33.9144 C   0  0  0  0  0  0  0  0  0  0  0  0
  -23.9434    4.7507  -32.4608 C   0  0  0  0  0  0  0  0  0  0  0  0
  -23.8251    5.8828  -31.5992 C   0  0  0  0  0  0  0  0  0  0  0  0
  -23.6378   -0.0455  -32.3754 C   0  0  0  0  0  0  0  0  0  0  0  0
  -23.4431    3.4692  -34.3913 C   0  0  0  0  0  0  0  0  0  0  0  0
  -23.2408    4.6726  -33.6919 C   0  0  0  0  0  0  0  0  0  0  0  0
  -23.2007    1.7515  -36.0800 C   0  0  0  0  0  0  0  0  0  0  0  0
  -23.0498    6.9515  -32.0632 C   0  0  0  0  0  0  0  0  0  0  0  0
  -22.7193    2.9551  -35.5061 C   0  0  0  0  0  0  0  0  0  0  0  0
  -22.3933    5.7148  -34.1000 C   0  0  0  0  0  0  0  0  0  0  0  0
  -22.3272    6.8697  -33.2935 C   0  0  0  0  0  0  0  0  0  0  0  0
  -21.5762    5.4894  -35.4891 C   0  0  0  0  0  0  0  0  0  0  0  0
  -24.4304    5.9484  -30.3466 O   0  0  0  0  0  0  0  0  0  0  0  0
  -26.8582   -1.3381  -31.3330 N   0  0  0  0  0  0  0  0  0  0  0  0
  -25.0620   -0.2270  -32.0987 N   0  0  0  0  0  0  0  0  0  0  0  0
  -24.3112    1.1551  -35.5418 N   0  0  0  0  0  0  0  0  0  0  0  0
  1  2  2  0
  1  3  1  0
  2  4  1  0
  3  5  2  0
  3 23  1  0
  4  6  2  0
  5  6  1  0
  5 24  1  0
  6  9  1  0
  7 23  1  0
  7 24  1  0
  8 22  1  0
  9 10  2  0
  9 25  1  0
 10 14  1  0
 11 12  2  0
 11 15  1  0
 12 17  1  0
 12 22  1  0
 13 24  1  0
 14 15  1  0
 14 18  2  0
 15 19  2  0
 16 18  1  0
 16 25  2  0
 17 20  2  0
 19 20  1  0
 19 21  1  0
M  END
$$$$

     RDKit          3D

 19 21  0  0  0  0  0  0  0  0999 V2000
  -26.8740   -0.9274  -34.1437 C   0  0  0  0  0  0  0  0  0  0  0  0
  -25.8119   -0.7910  -31.3770 C   0  0  0  0  0  0  0  0  0  0  0  0
  -25.8952    0.4389  -32.3432 C   0  0  0  0  0  0  0  0  0  0  0  0
  -25.6814   -0.0899  -33.8135 C   0  0  0  0  0  0  0  0  0  0  0  0
  -25.6098    1.0737  -34.7928 C   0  0  0  0  0  0  0  0  0  0  0  0
  -24.7884    1.3960  -31.9064 C   0  0  0  0  0  0  0  0  0  0  0  0
  -24.9301    2.3527  -34.2486 C   0  0  0  0  0  0  0  0  0  0  0  0
  -24.6562    2.5301  -32.8045 C   0  0  0  0  0  0  0  0  0  0  0  0
  -24.6561    3.3930  -36.5330 C   0  0  0  0  0  0  0  0  0  0  0  0
  -24.4447    3.4327  -35.1314 C   0  0  0  0  0  0  0  0  0  0  0  0
  -24.1663    4.3844  -37.3365 C   0  0  0  0  0  0  0  0  0  0  0  0
  -23.8792    3.6721  -32.2905 C   0  0  0  0  0  0  0  0  0  0  0  0
  -23.7065    4.5647  -34.5835 C   0  0  0  0  0  0  0  0  0  0  0  0
  -23.2534    0.8540  -31.9904 C   0  0  0  0  0  0  0  0  0  0  0  0
  -23.4041    4.6890  -33.1743 C   0  0  0  0  0  0  0  0  0  0  0  0
  -23.3880    5.4434  -36.8307 C   0  0  0  0  0  0  0  0  0  0  0  0
  -23.2113    5.5730  -35.4752 C   0  0  0  0  0  0  0  0  0  0  0  0
  -24.7630   -1.0389  -30.7499 O   0  0  0  0  0  0  0  0  0  0  0  0
  -26.8814   -1.5175  -31.1064 N   0  0  0  0  0  0  0  0  0  0  0  0
  1  4  1  0
  2  3  1  0
  2 18  2  0
  2 19  1  0
  3  4  1  0
  3  6  1  0
  4  5  1  0
  5  7  1  0
  6  8  1  0
  6 14  1  0
  7  8  2  0
  7 10  1  0
  8 12  1  0
  9 10  2  0
  9 11  1  0
 10 13  1  0
 11 16  2  0
 12 15  2  0
 13 15  1  0
 13 17  2  0
 16 17  1  0
M  END
$$$$

     RDKit          3D

 28 31  0  0  0  0  0  0  0  0999 V2000
  -30.4666    0.7985  -34.5632 C   0  0  0  0  0  0  0  0  0  0  0  0
  -30.5203    5.3446  -32.8695 C   0  0  0  0  0  0  0  0  0  0  0  0
  -30.4563    3.1341  -33.8755 C   0  0  0  0  0  0  0  0  0  0  0  0
  -29.9801    6.2984  -32.0422 C   0  0  0  0  0  0  0  0  0  0  0  0
  -29.9391   -0.4962  -34.5657 C   0  0  0  0  0  0  0  0  0  0  0  0
  -29.7732    1.8725  -33.9112 C   0  0  0  0  0  0  0  0  0  0  0  0
  -29.8360    4.1356  -33.0508 C   0  0  0  0  0  0  0  0  0  0  0  0
  -28.7807    6.0774  -31.3653 C   0  0  0  0  0  0  0  0  0  0  0  0
  -28.6799   -0.7308  -33.9498 C   0  0  0  0  0  0  0  0  0  0  0  0
  -28.5247    1.6253  -33.3040 C   0  0  0  0  0  0  0  0  0  0  0  0
  -28.5911    3.9115  -32.4095 C   0  0  0  0  0  0  0  0  0  0  0  0
  -28.0014    0.2804  -33.2602 C   0  0  0  0  0  0  0  0  0  0  0  0
  -28.0904    4.8720  -31.5406 C   0  0  0  0  0  0  0  0  0  0  0  0
  -26.8288   -0.2412  -32.5065 C   0  0  0  0  0  0  0  0  0  0  0  0
  -26.8932    4.5540  -30.6942 C   0  0  0  0  0  0  0  0  0  0  0  0
  -24.3672   -0.4674  -32.2007 C   0  0  0  0  0  0  0  0  0  0  0  0
  -23.6145    2.7752  -33.1345 C   0  0  0  0  0  0  0  0  0  0  0  0
  -23.2245    0.4987  -32.0553 C   0  0  0  0  0  0  0  0  0  0  0  0
  -23.2077    3.9758  -33.7091 C   0  0  0  0  0  0  0  0  0  0  0  0
  -22.7166    1.8507  -32.6274 C   0  0  0  0  0  0  0  0  0  0  0  0
  -21.8711    4.2693  -33.7641 C   0  0  0  0  0  0  0  0  0  0  0  0
  -21.3371    2.1904  -32.6250 C   0  0  0  0  0  0  0  0  0  0  0  0
  -20.9048    3.4378  -33.2009 C   0  0  0  0  0  0  0  0  0  0  0  0
  -27.0481   -1.0694  -31.6238 O   0  0  0  0  0  0  0  0  0  0  0  0
  -25.2306    0.2073  -34.1776 O   0  0  0  0  0  0  0  0  0  0  0  0
  -27.8905    2.7044  -32.6639 N   0  0  0  0  0  0  0  0  0  0  0  0
  -25.5468    0.0059  -32.9166 N   0  0  0  0  0  0  0  0  0  0  0  0
  -24.1598    4.7876  -34.1968 F   0  0  0  0  0  0  0  0  0  0  0  0
  1  5  2  0
  1  6  1  0
  2  4  2  0
  2  7  1  0
  3  6  1  0
  3  7  1  0
  4  8  1  0
  5  9  1  0
  6 10  1  0
  7 11  1  0
  8 13  1  0
  9 12  2  0
 10 12  1  0
 10 26  2  0
 11 13  2  0
 11 26  1  0
 12 14  1  0
 13 15  1  0
 14 24  2  0
 14 27  1  0
 16 18  2  3
 16 27  1  0
 17 19  2  0
 17 20  1  0
 18 20  1  0
 19 21  1  0
 19 28  1  0
 20 22  2  0
 21 23  2  0
 22 23  1  0
 25 27  1  0
M  END
$$$$

     RDKit          3D

 25 26  0  0  0  0  0  0  0  0999 V2000
  -29.8169    3.8000  -32.8486 C   0  0  0  0  0  0  0  0  0  0  0  0
  -29.7246    6.0796  -31.7962 C   0  0  0  0  0  0  0  0  0  0  0  0
  -29.1587    2.6991  -33.3926 C   0  0  0  0  0  0  0  0  0  0  0  0
  -29.0792    4.9074  -32.3898 C   0  0  0  0  0  0  0  0  0  0  0  0
  -27.7596    2.7489  -33.5733 C   0  0  0  0  0  0  0  0  0  0  0  0
  -27.6942    4.9186  -32.5468 C   0  0  0  0  0  0  0  0  0  0  0  0
  -27.0668    1.6347  -34.3116 C   0  0  0  0  0  0  0  0  0  0  0  0
  -27.0226    3.8368  -33.1064 C   0  0  0  0  0  0  0  0  0  0  0  0
  -26.8721    0.4101  -33.4447 C   0  0  0  0  0  0  0  0  0  0  0  0
  -25.9244    6.5581  -32.7791 C   0  0  0  0  0  0  0  0  0  0  0  0
  -25.6436   -0.7785  -31.6486 C   0  0  0  0  0  0  0  0  0  0  0  0
  -25.5908    0.1941  -32.7352 C   0  0  0  0  0  0  0  0  0  0  0  0
  -24.3616    0.8993  -33.0323 C   0  0  0  0  0  0  0  0  0  0  0  0
  -23.3013   -0.4123  -31.2542 C   0  0  0  0  0  0  0  0  0  0  0  0
  -22.0865   -0.6809  -30.3816 C   0  0  0  0  0  0  0  0  0  0  0  0
  -21.3560   -3.0708  -30.8345 C   0  0  0  0  0  0  0  0  0  0  0  0
  -20.9778   -1.5837  -30.9585 C   0  0  0  0  0  0  0  0  0  0  0  0
  -20.2742   -4.1420  -30.8350 C   0  0  0  0  0  0  0  0  0  0  0  0
  -30.6470    6.6778  -32.3894 O   0  0  0  0  0  0  0  0  0  0  0  0
  -29.4066    6.4401  -30.6735 O   0  0  0  0  0  0  0  0  0  0  0  0
  -26.9933    5.9718  -32.0522 O   0  0  0  0  0  0  0  0  0  0  0  0
  -26.7296   -1.3832  -31.3522 O   0  0  0  0  0  0  0  0  0  0  0  0
  -24.2948    1.8000  -33.9142 O   0  0  0  0  0  0  0  0  0  0  0  0
  -24.4943   -1.0366  -30.9481 N   0  0  0  0  0  0  0  0  0  0  0  0
  -23.2529    0.5230  -32.2781 N   0  0  0  0  0  0  0  0  0  0  0  0
  1  3  2  0
  1  4  1  0
  2  4  1  0
  2 19  2  0
  2 20  1  0
  3  5  1  0
  4  6  1  0
  5  7  1  0
  5  8  1  0
  6  8  2  0
  6 21  1  0
  7  9  1  0
  9 12  1  0
 10 21  1  0
 11 12  1  0
 11 22  2  0
 11 24  1  0
 12 13  1  0
 13 23  2  0
 13 25  1  0
 14 15  1  0
 14 24  1  0
 14 25  2  0
 15 17  1  0
 16 17  1  0
 16 18  1  0
M  END
$$$$

     RDKit          3D

 39 43  0  0  0  0  0  0  0  0999 V2000
  -30.9082   -2.6673  -36.9684 C   0  0  0  0  0  0  0  0  0  0  0  0
  -30.5268   -0.3144  -36.1682 C   0  0  0  0  0  0  0  0  0  0  0  0
  -30.3917   -1.6891  -35.9836 C   0  0  0  0  0  0  0  0  0  0  0  0
  -29.9313    0.6090  -35.2796 C   0  0  0  0  0  0  0  0  0  0  0  0
  -29.6888   -2.1552  -34.8540 C   0  0  0  0  0  0  0  0  0  0  0  0
  -29.0802   -1.2411  -33.9742 C   0  0  0  0  0  0  0  0  0  0  0  0
  -29.1988    0.1702  -34.2120 C   0  0  0  0  0  0  0  0  0  0  0  0
  -28.4644    1.2037  -33.3380 C   0  0  0  0  0  0  0  0  0  0  0  0
  -27.5070    2.1220  -34.1698 C   0  0  0  0  0  0  0  0  0  0  0  0
  -26.4547    2.7210  -33.3506 C   0  0  0  0  0  0  0  0  0  0  0  0
  -25.7985    3.0427  -36.0720 C   0  0  0  0  0  0  0  0  0  0  0  0
  -25.5947    3.8998  -33.8154 C   0  0  0  0  0  0  0  0  0  0  0  0
  -24.0231    4.9947  -36.8145 C   0  0  0  0  0  0  0  0  0  0  0  0
  -23.8601    4.3544  -35.5190 C   0  0  0  0  0  0  0  0  0  0  0  0
  -22.9521    5.7955  -37.3567 C   0  0  0  0  0  0  0  0  0  0  0  0
  -22.6434    4.2523  -30.9331 C   0  0  0  0  0  0  0  0  0  0  0  0
  -22.6081    4.5172  -34.8455 C   0  0  0  0  0  0  0  0  0  0  0  0
  -22.5941    4.8787  -32.3337 C   0  0  0  0  0  0  0  0  0  0  0  0
  -22.2425    2.1243  -29.6092 C   0  0  0  0  0  0  0  0  0  0  0  0
  -22.0053   -2.2088  -30.8627 C   0  0  0  0  0  0  0  0  0  0  0  0
  -22.1978    2.8509  -30.8094 C   0  0  0  0  0  0  0  0  0  0  0  0
  -21.8892    0.7947  -29.5640 C   0  0  0  0  0  0  0  0  0  0  0  0
  -21.7480    5.8965  -36.6603 C   0  0  0  0  0  0  0  0  0  0  0  0
  -21.6990   -3.5250  -30.9663 C   0  0  0  0  0  0  0  0  0  0  0  0
  -21.6941    2.1741  -31.9897 C   0  0  0  0  0  0  0  0  0  0  0  0
  -21.6684    2.8143  -33.3299 C   0  0  0  0  0  0  0  0  0  0  0  0
  -21.6144    5.2817  -35.4207 C   0  0  0  0  0  0  0  0  0  0  0  0
  -21.4038    0.1302  -30.6822 C   0  0  0  0  0  0  0  0  0  0  0  0
  -21.3199    0.8154  -31.8773 C   0  0  0  0  0  0  0  0  0  0  0  0
  -21.0096   -1.2785  -30.7234 C   0  0  0  0  0  0  0  0  0  0  0  0
  -20.3675   -3.9278  -30.9175 C   0  0  0  0  0  0  0  0  0  0  0  0
  -19.6737   -1.6611  -30.7014 C   0  0  0  0  0  0  0  0  0  0  0  0
  -19.3313   -3.0202  -30.7936 C   0  0  0  0  0  0  0  0  0  0  0  0
  -32.0819   -2.4706  -37.4315 O   0  0  0  0  0  0  0  0  0  0  0  0
  -30.3043   -3.7866  -36.7946 O   0  0  0  0  0  0  0  0  0  0  0  0
  -21.1037    2.1838  -34.2570 O   0  0  0  0  0  0  0  0  0  0  0  0
  -24.9125    3.5854  -35.0381 N   0  0  0  0  0  0  0  0  0  0  0  0
  -22.3616    4.0080  -33.5030 N   0  0  0  0  0  0  0  0  0  0  0  0
  -30.0900    2.2835  -35.8212 Cl  0  0  0  0  0  0  0  0  0  0  0  0
  1  3  1  0
  1 34  2  0
  1 35  1  0
  2  3  2  0
  2  4  1  0
  3  5  1  0
  4  7  2  0
  4 39  1  0
  5  6  2  0
  6  7  1  0
  7  8  1  0
  8  9  1  0
  9 10  1  0
 10 12  1  0
 11 37  1  0
 12 37  1  0
 13 14  2  0
 13 15  1  0
 14 17  1  0
 14 37  1  0
 15 23  2  0
 16 18  2  0
 16 21  1  0
 17 27  2  0
 17 38  1  0
 18 38  1  0
 19 21  2  0
 19 22  1  0
 20 24  2  0
 20 30  1  0
 21 25  1  0
 22 28  2  0
 23 27  1  0
 24 31  1  0
 25 26  1  0
 25 29  2  0
 26 36  2  0
 26 38  1  0
 28 29  1  0
 28 30  1  0
 30 32  2  0
 31 33  2  0
 32 33  1  0
M  END
$$$$

     RDKit          3D

 38 42  0  0  0  0  0  0  0  0999 V2000
  -30.2016    7.8288  -29.3934 C   0  0  0  0  0  0  0  0  0  0  0  0
  -29.9280    7.2330  -28.1523 C   0  0  0  0  0  0  0  0  0  0  0  0
  -29.3750    7.5054  -30.5173 C   0  0  0  0  0  0  0  0  0  0  0  0
  -28.8331    6.3835  -28.0020 C   0  0  0  0  0  0  0  0  0  0  0  0
  -28.3021    6.6303  -30.3759 C   0  0  0  0  0  0  0  0  0  0  0  0
  -28.0180    6.0531  -29.0997 C   0  0  0  0  0  0  0  0  0  0  0  0
  -27.5079    6.2397  -31.5996 C   0  0  0  0  0  0  0  0  0  0  0  0
  -27.0217    3.4298  -31.6611 C   0  0  0  0  0  0  0  0  0  0  0  0
  -25.9660    4.3887  -31.3229 C   0  0  0  0  0  0  0  0  0  0  0  0
  -25.4528    1.6214  -31.4623 C   0  0  0  0  0  0  0  0  0  0  0  0
  -25.1313    0.1789  -31.5236 C   0  0  0  0  0  0  0  0  0  0  0  0
  -24.6523    3.9029  -31.0610 C   0  0  0  0  0  0  0  0  0  0  0  0
  -24.3933    2.5212  -31.1479 C   0  0  0  0  0  0  0  0  0  0  0  0
  -23.7165   -0.2577  -31.3184 C   0  0  0  0  0  0  0  0  0  0  0  0
  -23.5668    5.7523  -29.7722 C   0  0  0  0  0  0  0  0  0  0  0  0
  -23.3207   -1.6115  -31.2252 C   0  0  0  0  0  0  0  0  0  0  0  0
  -22.7462    0.7728  -31.1634 C   0  0  0  0  0  0  0  0  0  0  0  0
  -22.4193    5.5289  -35.4227 C   0  0  0  0  0  0  0  0  0  0  0  0
  -22.0430    4.9030  -36.5838 C   0  0  0  0  0  0  0  0  0  0  0  0
  -21.9752    5.0476  -34.2322 C   0  0  0  0  0  0  0  0  0  0  0  0
  -21.9301   -1.9768  -31.1602 C   0  0  0  0  0  0  0  0  0  0  0  0
  -21.4146   -3.3668  -31.0450 C   0  0  0  0  0  0  0  0  0  0  0  0
  -21.3358    0.4439  -31.2181 C   0  0  0  0  0  0  0  0  0  0  0  0
  -21.1211    3.8602  -36.6254 C   0  0  0  0  0  0  0  0  0  0  0  0
  -21.1157    3.9395  -34.1687 C   0  0  0  0  0  0  0  0  0  0  0  0
  -20.9485   -0.9439  -31.1991 C   0  0  0  0  0  0  0  0  0  0  0  0
  -20.6658    3.3026  -35.4025 C   0  0  0  0  0  0  0  0  0  0  0  0
  -20.3508    1.5813  -31.3107 C   0  0  0  0  0  0  0  0  0  0  0  0
  -20.3675    2.1581  -32.6989 C   0  0  0  0  0  0  0  0  0  0  0  0
  -28.2402    3.7581  -31.8996 O   0  0  0  0  0  0  0  0  0  0  0  0
  -26.0245   -0.6620  -31.8012 O   0  0  0  0  0  0  0  0  0  0  0  0
  -23.5964    4.7116  -30.6549 O   0  0  0  0  0  0  0  0  0  0  0  0
  -20.7520    3.4443  -32.9217 O   0  0  0  0  0  0  0  0  0  0  0  0
  -19.6637   -1.2864  -31.2973 O   0  0  0  0  0  0  0  0  0  0  0  0
  -26.7497    2.0916  -31.6330 N   0  0  0  0  0  0  0  0  0  0  0  0
  -26.2172    5.7189  -31.2930 N   0  0  0  0  0  0  0  0  0  0  0  0
  -23.0835    2.1125  -31.0680 N   0  0  0  0  0  0  0  0  0  0  0  0
  -30.7737    7.5370  -26.7545 Cl  0  0  0  0  0  0  0  0  0  0  0  0
  1  2  1  0
  1  3  1  0
  2  4  2  0
  2 38  1  0
  3  5  2  0
  4  6  1  0
  5  6  1  0
  5  7  1  0
  7 36  1  0
  8  9  1  0
  8 30  2  0
  8 35  1  0
  9 12  1  0
  9 36  2  3
 10 11  1  0
 10 13  1  0
 10 35  2  0
 11 14  1  0
 11 31  2  0
 12 13  1  0
 12 32  1  0
 13 37  2  0
 14 16  1  0
 14 17  2  0
 15 32  1  0
 16 21  1  0
 17 23  1  0
 17 37  1  0
 18 19  2  0
 18 20  1  0
 19 24  1  0
 20 25  2  0
 21 22  1  0
 21 26  2  0
 23 26  1  0
 23 28  1  0
 24 27  2  0
 25 27  1  0
 25 33  1  0
 26 34  1  0
 28 29  1  0
 29 33  1  0
M  END
$$$$

     RDKit          3D

 20 22  0  0  0  0  0  0  0  0999 V2000
  -29.8264   -0.3001  -33.5648 C   0  0  0  0  0  0  0  0  0  0  0  0
  -29.1537    0.5641  -34.4092 C   0  0  0  0  0  0  0  0  0  0  0  0
  -28.9496   -0.8999  -32.6805 C   0  0  0  0  0  0  0  0  0  0  0  0
  -27.7283   -0.3102  -32.9606 C   0  0  0  0  0  0  0  0  0  0  0  0
  -27.7872    0.5880  -34.0078 C   0  0  0  0  0  0  0  0  0  0  0  0
  -26.5139   -0.4661  -32.2931 C   0  0  0  0  0  0  0  0  0  0  0  0
  -25.5477    1.0760  -33.8252 C   0  0  0  0  0  0  0  0  0  0  0  0
  -24.5262    1.8344  -34.3906 C   0  0  0  0  0  0  0  0  0  0  0  0
  -24.2348    1.9604  -35.8069 C   0  0  0  0  0  0  0  0  0  0  0  0
  -23.5533    2.5438  -33.6755 C   0  0  0  0  0  0  0  0  0  0  0  0
  -22.2234    2.1761  -34.8634 C   0  0  0  0  0  0  0  0  0  0  0  0
  -21.3022    3.2591  -34.5259 C   0  0  0  0  0  0  0  0  0  0  0  0
  -20.3396    2.9039  -33.4940 C   0  0  0  0  0  0  0  0  0  0  0  0
  -21.7368    4.5292  -34.5414 O   0  0  0  0  0  0  0  0  0  0  0  0
  -20.2756    3.7118  -32.4661 O   0  0  0  0  0  0  0  0  0  0  0  0
  -26.7347    1.2608  -34.4119 N   0  0  0  0  0  0  0  0  0  0  0  0
  -26.2107   -1.2261  -31.2916 N   0  0  0  0  0  0  0  0  0  0  0  0
  -25.4616    0.2040  -32.7395 N   0  0  0  0  0  0  0  0  0  0  0  0
  -24.8794   -1.0797  -31.0819 N   0  0  0  0  0  0  0  0  0  0  0  0
  -24.4163   -0.1405  -31.9420 N   0  0  0  0  0  0  0  0  0  0  0  0
  1  2  1  0
  1  3  1  0
  2  5  1  0
  3  4  1  0
  4  5  1  0
  4  6  2  0
  5 16  2  0
  6 17  1  0
  6 18  1  0
  7  8  1  0
  7 16  1  0
  7 18  1  0
  8  9  1  0
  8 10  1  0
 10 11  1  0
 11 12  1  0
 12 13  1  0
 12 14  1  0
 13 15  1  0
 17 19  1  0
 18 20  1  0
 19 20  1  0
M  END
$$$$

     RDKit          3D

 34 37  0  0  0  0  0  0  0  0999 V2000
  -29.8012    5.4763  -32.3806 C   0  0  0  0  0  0  0  0  0  0  0  0
  -29.3919    4.1991  -32.7012 C   0  0  0  0  0  0  0  0  0  0  0  0
  -28.9542    6.3300  -31.6578 C   0  0  0  0  0  0  0  0  0  0  0  0
  -28.5699    1.5137  -33.3756 C   0  0  0  0  0  0  0  0  0  0  0  0
  -28.1290    3.7266  -32.2830 C   0  0  0  0  0  0  0  0  0  0  0  0
  -27.7415    2.3749  -32.5625 C   0  0  0  0  0  0  0  0  0  0  0  0
  -27.6903    5.9581  -31.2938 C   0  0  0  0  0  0  0  0  0  0  0  0
  -27.2368    4.6139  -31.5458 C   0  0  0  0  0  0  0  0  0  0  0  0
  -26.9420   -0.2074  -33.3144 C   0  0  0  0  0  0  0  0  0  0  0  0
  -26.4932    1.8900  -32.0352 C   0  0  0  0  0  0  0  0  0  0  0  0
  -26.0923    0.5441  -32.3688 C   0  0  0  0  0  0  0  0  0  0  0  0
  -25.6910    2.7620  -31.2141 C   0  0  0  0  0  0  0  0  0  0  0  0
  -24.9408   -0.1648  -31.8168 C   0  0  0  0  0  0  0  0  0  0  0  0
  -24.8957    4.9509  -30.5132 C   0  0  0  0  0  0  0  0  0  0  0  0
  -24.3570    5.9067  -31.6270 C   0  0  0  0  0  0  0  0  0  0  0  0
  -24.1474    5.1917  -32.9995 C   0  0  0  0  0  0  0  0  0  0  0  0
  -23.4788    0.1043  -31.8066 C   0  0  0  0  0  0  0  0  0  0  0  0
  -22.9870    6.4511  -31.2449 C   0  0  0  0  0  0  0  0  0  0  0  0
  -22.9441    1.3699  -32.1518 C   0  0  0  0  0  0  0  0  0  0  0  0
  -22.5502   -0.9754  -31.3641 C   0  0  0  0  0  0  0  0  0  0  0  0
  -21.9433   -3.3133  -30.7384 C   0  0  0  0  0  0  0  0  0  0  0  0
  -21.5758    1.6251  -32.0708 C   0  0  0  0  0  0  0  0  0  0  0  0
  -21.1377   -0.6061  -31.2926 C   0  0  0  0  0  0  0  0  0  0  0  0
  -20.6924    0.6802  -31.6059 C   0  0  0  0  0  0  0  0  0  0  0  0
  -20.1497   -1.5929  -30.8689 C   0  0  0  0  0  0  0  0  0  0  0  0
  -19.5400   -3.9684  -30.5358 C   0  0  0  0  0  0  0  0  0  0  0  0
  -26.5558   -1.3019  -33.7975 O   0  0  0  0  0  0  0  0  0  0  0  0
  -22.9671   -2.1823  -31.0399 O   0  0  0  0  0  0  0  0  0  0  0  0
  -22.7977    7.4962  -32.1040 O   0  0  0  0  0  0  0  0  0  0  0  0
  -22.1226    5.4814  -31.0718 O   0  0  0  0  0  0  0  0  0  0  0  0
  -18.9225   -1.2830  -30.8110 O   0  0  0  0  0  0  0  0  0  0  0  0
  -28.1423    0.2915  -33.7434 N   0  0  0  0  0  0  0  0  0  0  0  0
  -25.9646    4.1138  -31.1356 N   0  0  0  0  0  0  0  0  0  0  0  0
  -20.5451   -2.8902  -30.6585 N   0  0  0  0  0  0  0  0  0  0  0  0
  1  2  2  0
  1  3  1  0
  2  5  1  0
  3  7  2  0
  4  6  1  0
  4 32  2  0
  5  6  2  0
  5  8  1  0
  6 10  1  0
  7  8  1  0
  8 33  1  0
  9 11  1  0
  9 27  2  0
  9 32  1  0
 10 11  1  0
 10 12  2  0
 11 13  1  0
 12 33  1  0
 13 17  1  0
 14 15  1  0
 14 33  1  0
 15 16  1  0
 15 18  1  0
 17 19  2  0
 17 20  1  0
 18 29  1  0
 18 30  1  0
 19 22  1  0
 20 23  2  0
 20 28  1  0
 21 34  1  0
 22 24  2  0
 23 24  1  0
 23 25  1  0
 25 31  2  0
 25 34  1  0
 26 34  1  0
M  END
$$$$

     RDKit          3D

 41 47  0  0  0  0  0  0  0  0999 V2000
  -32.4679    1.3119  -33.8667 C   0  0  0  0  0  0  0  0  0  0  0  0
  -32.9136    2.6626  -34.0652 C   0  0  0  0  0  0  0  0  0  0  0  0
  -31.8923    3.6854  -33.9054 C   0  0  0  0  0  0  0  0  0  0  0  0
  -31.2257    0.9149  -33.6336 C   0  0  0  0  0  0  0  0  0  0  0  0
  -30.6189    3.2470  -33.5227 C   0  0  0  0  0  0  0  0  0  0  0  0
  -30.3203    1.9420  -33.3869 C   0  0  0  0  0  0  0  0  0  0  0  0
  -30.0035    6.2858  -34.4610 C   0  0  0  0  0  0  0  0  0  0  0  0
  -30.1078    7.6799  -34.4299 C   0  0  0  0  0  0  0  0  0  0  0  0
  -29.7926    8.3654  -33.2516 C   0  0  0  0  0  0  0  0  0  0  0  0
  -29.5985    5.5732  -33.3456 C   0  0  0  0  0  0  0  0  0  0  0  0
  -29.3065    6.2553  -32.1398 C   0  0  0  0  0  0  0  0  0  0  0  0
  -29.4101    7.6562  -32.1155 C   0  0  0  0  0  0  0  0  0  0  0  0
  -28.4116    3.4754  -35.5097 C   0  0  0  0  0  0  0  0  0  0  0  0
  -28.3446    3.7278  -34.1132 C   0  0  0  0  0  0  0  0  0  0  0  0
  -27.2580    3.0405  -36.2089 C   0  0  0  0  0  0  0  0  0  0  0  0
  -27.0650    3.5597  -33.4373 C   0  0  0  0  0  0  0  0  0  0  0  0
  -26.3975    3.7676  -32.0351 C   0  0  0  0  0  0  0  0  0  0  0  0
  -26.0433    2.9131  -35.5298 C   0  0  0  0  0  0  0  0  0  0  0  0
  -25.9372    3.1943  -34.1641 C   0  0  0  0  0  0  0  0  0  0  0  0
  -24.8572   -0.4955  -30.8535 C   0  0  0  0  0  0  0  0  0  0  0  0
  -24.7111    3.1989  -33.3789 C   0  0  0  0  0  0  0  0  0  0  0  0
  -24.6695    0.8712  -30.7718 C   0  0  0  0  0  0  0  0  0  0  0  0
  -24.2729    3.7065  -30.9725 C   0  0  0  0  0  0  0  0  0  0  0  0
  -23.7838   -1.3591  -31.0459 C   0  0  0  0  0  0  0  0  0  0  0  0
  -23.3805    1.4301  -30.9182 C   0  0  0  0  0  0  0  0  0  0  0  0
  -23.1202    2.8866  -30.8491 C   0  0  0  0  0  0  0  0  0  0  0  0
  -22.4510   -0.8393  -31.0443 C   0  0  0  0  0  0  0  0  0  0  0  0
  -22.2671    0.5812  -31.0914 C   0  0  0  0  0  0  0  0  0  0  0  0
  -21.7367    3.2789  -30.4223 C   0  0  0  0  0  0  0  0  0  0  0  0
  -21.4232    4.7341  -30.6508 C   0  0  0  0  0  0  0  0  0  0  0  0
  -21.1492   -1.3561  -28.5664 C   0  0  0  0  0  0  0  0  0  0  0  0
  -20.8002    2.4643  -31.3141 C   0  0  0  0  0  0  0  0  0  0  0  0
  -20.4976   -1.4163  -29.8691 C   0  0  0  0  0  0  0  0  0  0  0  0
  -19.2337   -2.1552  -29.6639 C   0  0  0  0  0  0  0  0  0  0  0  0
  -18.8470   -1.8708  -28.1957 C   0  0  0  0  0  0  0  0  0  0  0  0
  -27.0622    3.5875  -31.0674 O   0  0  0  0  0  0  0  0  0  0  0  0
  -21.3406   -1.6964  -30.9801 O   0  0  0  0  0  0  0  0  0  0  0  0
  -20.9908    1.0785  -31.2375 O   0  0  0  0  0  0  0  0  0  0  0  0
  -29.4795    4.1270  -33.3726 N   0  0  0  0  0  0  0  0  0  0  0  0
  -25.0150    3.6816  -32.1399 N   0  0  0  0  0  0  0  0  0  0  0  0
  -20.0605   -1.4314  -27.5709 N   0  0  0  0  0  0  0  0  0  0  0  0
  1  2  2  0
  1  4  1  0
  2  3  1  0
  3  5  1  0
  4  6  1  0
  5  6  2  0
  5 39  1  0
  7  8  1  0
  7 10  2  0
  8  9  1  0
  9 12  2  0
 10 11  1  0
 10 39  1  0
 11 12  1  0
 13 14  2  0
 13 15  1  0
 14 16  1  0
 14 39  1  0
 15 18  2  0
 16 17  1  0
 16 19  2  0
 17 36  2  0
 17 40  1  0
 18 19  1  0
 19 21  1  0
 20 22  2  0
 20 24  1  0
 21 40  1  0
 22 25  1  0
 23 26  1  0
 23 40  1  0
 24 27  2  0
 25 26  1  0
 25 28  2  0
 26 29  1  0
 27 28  1  0
 27 37  1  0
 28 38  1  0
 29 30  1  0
 29 32  1  0
 31 33  1  0
 31 41  1  0
 32 38  1  0
 33 34  1  0
 33 37  1  0
 34 35  1  0
 35 41  1  0
M  END
$$$$

     RDKit          3D

 53 59  0  0  0  0  0  0  0  0999 V2000
  -29.7210    0.3419  -34.4537 C   0  0  0  0  0  0  0  0  0  0  0  0
  -29.5283   -0.5912  -33.4489 C   0  0  0  0  0  0  0  0  0  0  0  0
  -28.6691    1.1771  -34.8546 C   0  0  0  0  0  0  0  0  0  0  0  0
  -28.2816   -0.6895  -32.8075 C   0  0  0  0  0  0  0  0  0  0  0  0
  -27.9878   -1.6731  -31.8253 C   0  0  0  0  0  0  0  0  0  0  0  0
  -27.2274    0.1746  -33.1876 C   0  0  0  0  0  0  0  0  0  0  0  0
  -27.4290    1.1308  -34.2154 C   0  0  0  0  0  0  0  0  0  0  0  0
  -26.7492   -1.7913  -31.4165 C   0  0  0  0  0  0  0  0  0  0  0  0
  -26.5625    4.4193  -31.3299 C   0  0  0  0  0  0  0  0  0  0  0  0
  -26.2999    3.0990  -35.3140 C   0  0  0  0  0  0  0  0  0  0  0  0
  -26.4378    5.3828  -32.3240 C   0  0  0  0  0  0  0  0  0  0  0  0
  -26.0693   -0.2158  -32.4757 C   0  0  0  0  0  0  0  0  0  0  0  0
  -25.7494   -0.9944  -31.6743 C   0  0  0  0  0  0  0  0  0  0  0  0
  -25.4127    3.9294  -30.6364 C   0  0  0  0  0  0  0  0  0  0  0  0
  -25.1798    5.9017  -32.6380 C   0  0  0  0  0  0  0  0  0  0  0  0
  -25.0226    6.9485  -33.5792 C   0  0  0  0  0  0  0  0  0  0  0  0
  -24.8480    3.5012  -35.6006 C   0  0  0  0  0  0  0  0  0  0  0  0
  -23.9606   -0.8061  -32.0447 C   0  0  0  0  0  0  0  0  0  0  0  0
  -24.1411    4.3444  -31.0459 C   0  0  0  0  0  0  0  0  0  0  0  0
  -24.0120    5.3425  -32.0526 C   0  0  0  0  0  0  0  0  0  0  0  0
  -23.7241    2.9157  -34.7237 C   0  0  0  0  0  0  0  0  0  0  0  0
  -23.8003    7.4463  -33.8659 C   0  0  0  0  0  0  0  0  0  0  0  0
  -23.2027   -0.6256  -30.6783 C   0  0  0  0  0  0  0  0  0  0  0  0
  -22.8478    3.6886  -30.4730 C   0  0  0  0  0  0  0  0  0  0  0  0
  -22.7322    5.7926  -32.4556 C   0  0  0  0  0  0  0  0  0  0  0  0
  -22.4787    4.3927  -29.1353 C   0  0  0  0  0  0  0  0  0  0  0  0
  -22.6527    6.8615  -33.3464 C   0  0  0  0  0  0  0  0  0  0  0  0
  -22.3657    2.7939  -35.1669 C   0  0  0  0  0  0  0  0  0  0  0  0
  -22.2109    4.1952  -26.7705 C   0  0  0  0  0  0  0  0  0  0  0  0
  -22.2141    5.7825  -29.0470 C   0  0  0  0  0  0  0  0  0  0  0  0
  -21.9758    5.5620  -26.6738 C   0  0  0  0  0  0  0  0  0  0  0  0
  -21.9676    6.3717  -27.7894 C   0  0  0  0  0  0  0  0  0  0  0  0
  -21.9062    0.0682  -31.0507 C   0  0  0  0  0  0  0  0  0  0  0  0
  -21.7802    1.5836  -30.6433 C   0  0  0  0  0  0  0  0  0  0  0  0
  -21.8207    2.4220  -38.9621 C   0  0  0  0  0  0  0  0  0  0  0  0
  -21.9445    2.7198  -36.6023 C   0  0  0  0  0  0  0  0  0  0  0  0
  -21.6536    3.8998  -31.3915 C   0  0  0  0  0  0  0  0  0  0  0  0
  -21.2564    2.8220  -34.2096 C   0  0  0  0  0  0  0  0  0  0  0  0
  -21.0757    2.4955  -31.7501 C   0  0  0  0  0  0  0  0  0  0  0  0
  -20.7653   -0.9107  -30.9022 C   0  0  0  0  0  0  0  0  0  0  0  0
  -20.6094    3.1241  -38.2803 C   0  0  0  0  0  0  0  0  0  0  0  0
  -19.5597    2.4184  -31.6645 C   0  0  0  0  0  0  0  0  0  0  0  0
  -19.2261    1.9464  -30.2907 C   0  0  0  0  0  0  0  0  0  0  0  0
  -27.4959    5.8980  -32.9163 O   0  0  0  0  0  0  0  0  0  0  0  0
  -23.8221    0.1467  -32.8795 O   0  0  0  0  0  0  0  0  0  0  0  0
  -22.9917    2.2528  -30.3064 O   0  0  0  0  0  0  0  0  0  0  0  0
  -22.7564    2.4206  -37.5115 O   0  0  0  0  0  0  0  0  0  0  0  0
  -21.4793    2.0852  -33.0725 O   0  0  0  0  0  0  0  0  0  0  0  0
  -21.6430    5.1640  -32.0310 O   0  0  0  0  0  0  0  0  0  0  0  0
  -20.7856    2.9986  -36.8906 O   0  0  0  0  0  0  0  0  0  0  0  0
  -20.2027    3.5315  -34.3748 O   0  0  0  0  0  0  0  0  0  0  0  0
  -26.3498    1.9655  -34.4758 N   0  0  0  0  0  0  0  0  0  0  0  0
  -22.4713    3.6335  -28.0192 N   0  0  0  0  0  0  0  0  0  0  0  0
  1  2  2  0
  1  3  1  0
  2  4  1  0
  3  7  1  0
  4  5  1  0
  4  6  1  0
  5  8  2  0
  6  7  1  0
  6 12  2  0
  7 52  2  3
  8 13  1  0
  9 11  2  0
  9 14  1  0
 10 17  1  0
 10 52  1  0
 11 15  1  0
 11 44  1  0
 12 13  1  0
 14 19  2  0
 15 16  2  0
 15 20  1  0
 16 22  1  0
 17 21  1  0
 18 23  1  0
 18 45  2  0
 19 20  1  0
 19 24  1  0
 20 25  2  0
 21 28  1  0
 22 27  2  0
 23 33  1  0
 24 26  1  0
 24 37  1  0
 24 46  1  0
 25 27  1  0
 25 49  1  0
 26 30  1  0
 26 53  2  0
 28 36  1  0
 28 38  1  0
 29 31  1  0
 29 53  1  0
 30 32  1  0
 31 32  2  0
 33 34  1  0
 33 40  1  0
 34 39  1  0
 34 46  1  0
 35 41  1  0
 36 47  2  0
 36 50  1  0
 37 39  1  0
 37 49  1  0
 38 48  1  0
 38 51  2  0
 39 42  1  0
 39 48  1  0
 41 50  1  0
 42 43  1  0
M  END
$$$$

     RDKit          3D

 38 41  0  0  0  0  0  0  0  0999 V2000
  -30.9032   -0.8432  -35.9523 C   0  0  0  0  0  0  0  0  0  0  0  0
  -30.5963   -2.1542  -35.6078 C   0  0  0  0  0  0  0  0  0  0  0  0
  -30.3224    0.2110  -35.2366 C   0  0  0  0  0  0  0  0  0  0  0  0
  -29.7031   -2.4242  -34.5491 C   0  0  0  0  0  0  0  0  0  0  0  0
  -29.3745   -0.0286  -34.2411 C   0  0  0  0  0  0  0  0  0  0  0  0
  -29.3071    2.4600  -34.0194 C   0  0  0  0  0  0  0  0  0  0  0  0
  -29.1076   -1.3347  -33.8709 C   0  0  0  0  0  0  0  0  0  0  0  0
  -28.7370    1.1322  -33.5426 C   0  0  0  0  0  0  0  0  0  0  0  0
  -28.0826    3.7055  -34.1618 C   0  0  0  0  0  0  0  0  0  0  0  0
  -27.2177    1.0327  -33.4602 C   0  0  0  0  0  0  0  0  0  0  0  0
  -26.4357    2.2369  -33.0855 C   0  0  0  0  0  0  0  0  0  0  0  0
  -25.6984    4.4909  -33.8209 C   0  0  0  0  0  0  0  0  0  0  0  0
  -25.3202    4.4515  -36.3033 C   0  0  0  0  0  0  0  0  0  0  0  0
  -24.7620    4.9456  -34.9769 C   0  0  0  0  0  0  0  0  0  0  0  0
  -24.6199    5.1819  -37.4973 C   0  0  0  0  0  0  0  0  0  0  0  0
  -23.2822   -1.3850  -31.2579 C   0  0  0  0  0  0  0  0  0  0  0  0
  -23.1395    4.8489  -37.3961 C   0  0  0  0  0  0  0  0  0  0  0  0
  -22.7705    4.2326  -33.7032 C   0  0  0  0  0  0  0  0  0  0  0  0
  -22.5289    5.0835  -36.0182 C   0  0  0  0  0  0  0  0  0  0  0  0
  -22.5549    5.2810  -32.8084 C   0  0  0  0  0  0  0  0  0  0  0  0
  -22.4461    2.9343  -33.3684 C   0  0  0  0  0  0  0  0  0  0  0  0
  -21.8307   -1.7743  -31.0048 C   0  0  0  0  0  0  0  0  0  0  0  0
  -21.8871    2.6249  -32.1107 C   0  0  0  0  0  0  0  0  0  0  0  0
  -21.8200    3.6812  -31.1722 C   0  0  0  0  0  0  0  0  0  0  0  0
  -21.5380   -3.1533  -31.0659 C   0  0  0  0  0  0  0  0  0  0  0  0
  -21.1178    0.6804  -30.7677 C   0  0  0  0  0  0  0  0  0  0  0  0
  -20.8076   -0.8101  -30.8212 C   0  0  0  0  0  0  0  0  0  0  0  0
  -20.1843   -3.5668  -30.9010 C   0  0  0  0  0  0  0  0  0  0  0  0
  -19.4821   -1.2703  -30.6108 C   0  0  0  0  0  0  0  0  0  0  0  0
  -19.1796   -2.6316  -30.6694 C   0  0  0  0  0  0  0  0  0  0  0  0
  -23.3437    4.4294  -34.9536 O   0  0  0  0  0  0  0  0  0  0  0  0
  -22.7078    1.9635  -34.1965 O   0  0  0  0  0  0  0  0  0  0  0  0
  -22.6949    6.5130  -33.0966 O   0  0  0  0  0  0  0  0  0  0  0  0
  -26.5968    3.3815  -33.9407 N   0  0  0  0  0  0  0  0  0  0  0  0
  -22.1804    4.9829  -31.5182 N   0  0  0  0  0  0  0  0  0  0  0  0
  -21.3316    1.3425  -31.9283 N   0  0  0  0  0  0  0  0  0  0  0  0
  -19.9107   -4.9712  -31.0348 N   0  0  0  0  0  0  0  0  0  0  0  0
  -32.2325   -0.7184  -36.9368 Cl  0  0  0  0  0  0  0  0  0  0  0  0
  1  2  2  0
  1  3  1  0
  1 38  1  0
  2  4  1  0
  3  5  1  0
  4  7  1  0
  5  7  2  0
  5  8  1  0
  6  8  1  0
  6  9  1  0
  8 10  1  0
  9 34  1  0
 10 11  1  0
 11 34  1  0
 12 14  1  0
 12 34  1  0
 13 14  1  0
 13 15  1  0
 15 17  1  0
 16 22  1  0
 17 19  1  0
 18 20  1  0
 18 21  2  0
 18 31  1  0
 19 31  1  0
 20 33  2  0
 20 35  1  0
 21 23  1  0
 21 32  1  0
 22 25  2  0
 22 27  1  0
 23 24  1  0
 23 36  1  0
 24 35  2  0
 25 28  1  0
 26 27  1  0
 26 36  2  3
 27 29  2  0
 28 30  2  0
 28 37  1  0
 29 30  1  0
M  END
$$$$

     RDKit          3D

 46 46  0  0  0  0  0  0  0  0999 V2000
  -30.5812   -0.3006  -33.6619 C   0  0  0  0  0  0  0  0  0  0  0  0
  -29.5903    2.9335  -33.2502 C   0  0  0  0  0  0  0  0  0  0  0  0
  -29.2695    2.1732  -34.6415 C   0  0  0  0  0  0  0  0  0  0  0  0
  -28.8057    4.1102  -32.7473 C   0  0  0  0  0  0  0  0  0  0  0  0
  -28.5307    0.8557  -34.3982 C   0  0  0  0  0  0  0  0  0  0  0  0
  -28.6732    3.1230  -35.5957 C   0  0  0  0  0  0  0  0  0  0  0  0
  -28.4653    5.5370  -32.5201 C   0  0  0  0  0  0  0  0  0  0  0  0
  -28.4496    2.8365  -37.1018 C   0  0  0  0  0  0  0  0  0  0  0  0
  -28.1830    6.3876  -30.1591 C   0  0  0  0  0  0  0  0  0  0  0  0
  -27.4439    5.9092  -31.4448 C   0  0  0  0  0  0  0  0  0  0  0  0
  -27.0829    0.9610  -34.1562 C   0  0  0  0  0  0  0  0  0  0  0  0
  -24.9932    0.3312  -33.0266 C   0  0  0  0  0  0  0  0  0  0  0  0
  -25.0444    4.8835  -31.0633 C   0  0  0  0  0  0  0  0  0  0  0  0
  -25.1392    7.6499  -34.9120 C   0  0  0  0  0  0  0  0  0  0  0  0
  -24.7439    2.3295  -31.5997 C   0  0  0  0  0  0  0  0  0  0  0  0
  -24.7922    5.6717  -33.4170 C   0  0  0  0  0  0  0  0  0  0  0  0
  -24.7523    5.8609  -29.9890 C   0  0  0  0  0  0  0  0  0  0  0  0
  -24.4900    3.4519  -30.6010 C   0  0  0  0  0  0  0  0  0  0  0  0
  -24.3952    0.8661  -31.5773 C   0  0  0  0  0  0  0  0  0  0  0  0
  -24.3434    0.9915  -34.2874 C   0  0  0  0  0  0  0  0  0  0  0  0
  -24.0523    6.7147  -34.2839 C   0  0  0  0  0  0  0  0  0  0  0  0
  -23.2861    5.9246  -35.3622 C   0  0  0  0  0  0  0  0  0  0  0  0
  -22.9856    3.5772  -30.3090 C   0  0  0  0  0  0  0  0  0  0  0  0
  -23.0398    7.5270  -33.5537 C   0  0  0  0  0  0  0  0  0  0  0  0
  -22.1598   -0.3292  -31.4519 C   0  0  0  0  0  0  0  0  0  0  0  0
  -22.1006    6.7079  -35.9416 C   0  0  0  0  0  0  0  0  0  0  0  0
  -21.4822    6.0502  -37.1065 C   0  0  0  0  0  0  0  0  0  0  0  0
  -21.4511   -3.4154  -30.8503 C   0  0  0  0  0  0  0  0  0  0  0  0
  -21.0380   -0.7793  -30.4919 C   0  0  0  0  0  0  0  0  0  0  0  0
  -21.0780    4.6838  -36.9464 C   0  0  0  0  0  0  0  0  0  0  0  0
  -20.7170   -4.7847  -30.9253 C   0  0  0  0  0  0  0  0  0  0  0  0
  -20.5933    6.9584  -37.8736 C   0  0  0  0  0  0  0  0  0  0  0  0
  -20.4264   -2.1702  -30.8684 C   0  0  0  0  0  0  0  0  0  0  0  0
  -19.1924   -2.4969  -30.0168 C   0  0  0  0  0  0  0  0  0  0  0  0
  -19.0078    0.0454  -29.1898 C   0  0  0  0  0  0  0  0  0  0  0  0
  -18.2449   -1.2974  -29.8184 C   0  0  0  0  0  0  0  0  0  0  0  0
  -29.1781   -0.1338  -33.7366 O   0  0  0  0  0  0  0  0  0  0  0  0
  -26.4688    0.5530  -33.0267 O   0  0  0  0  0  0  0  0  0  0  0  0
  -26.5135    4.7555  -31.2051 O   0  0  0  0  0  0  0  0  0  0  0  0
  -25.7146    5.0341  -33.9111 O   0  0  0  0  0  0  0  0  0  0  0  0
  -24.9952    0.0609  -30.5679 O   0  0  0  0  0  0  0  0  0  0  0  0
  -24.2805    5.2155  -32.2949 O   0  0  0  0  0  0  0  0  0  0  0  0
  -22.9522    0.8244  -31.2140 O   0  0  0  0  0  0  0  0  0  0  0  0
  -22.2277   -3.4000  -29.7459 O   0  0  0  0  0  0  0  0  0  0  0  0
  -22.4208    7.0858  -32.4640 O   0  0  0  0  0  0  0  0  0  0  0  0
  -20.6854    3.9741  -37.9499 O   0  0  0  0  0  0  0  0  0  0  0  0
  1 37  1  0
  2  3  1  0
  2  4  2  0
  3  5  1  0
  3  6  1  0
  4  7  2  0
  5 11  1  0
  5 37  1  0
  6  8  1  0
  7 10  1  0
  9 10  1  0
 10 39  1  0
 11 38  1  0
 12 19  1  0
 12 20  1  0
 12 38  1  0
 13 17  1  0
 13 18  1  0
 13 39  1  0
 13 42  1  0
 14 21  1  0
 15 18  1  0
 15 19  1  0
 16 21  1  0
 16 40  2  0
 16 42  1  0
 18 23  1  0
 19 41  1  0
 19 43  1  0
 21 22  1  0
 21 24  1  0
 22 26  1  0
 24 45  1  0
 25 29  1  0
 25 43  1  0
 26 27  1  0
 27 30  1  0
 27 32  1  0
 28 31  1  0
 28 33  1  0
 28 44  1  0
 29 33  1  0
 30 46  1  0
 33 34  1  0
 34 36  1  0
 35 36  1  0
M  END
$$$$

     RDKit          3D

 40 44  0  0  0  0  0  0  0  0999 V2000
  -30.8739    7.9306  -30.1862 C   0  0  0  0  0  0  0  0  0  0  0  0
  -30.8774    8.0119  -28.7675 C   0  0  0  0  0  0  0  0  0  0  0  0
  -29.9020    7.1295  -30.8105 C   0  0  0  0  0  0  0  0  0  0  0  0
  -29.9110    7.3999  -28.0369 C   0  0  0  0  0  0  0  0  0  0  0  0
  -28.8747    6.4648  -30.0442 C   0  0  0  0  0  0  0  0  0  0  0  0
  -28.9099    6.5842  -28.6255 C   0  0  0  0  0  0  0  0  0  0  0  0
  -27.9067    2.5898  -32.4888 C   0  0  0  0  0  0  0  0  0  0  0  0
  -27.8086    2.8370  -33.9147 C   0  0  0  0  0  0  0  0  0  0  0  0
  -27.8334    5.5834  -30.7440 C   0  0  0  0  0  0  0  0  0  0  0  0
  -26.5561    2.1386  -34.4002 C   0  0  0  0  0  0  0  0  0  0  0  0
  -26.4608    5.3206  -30.4894 C   0  0  0  0  0  0  0  0  0  0  0  0
  -26.2558    0.8178  -34.0236 C   0  0  0  0  0  0  0  0  0  0  0  0
  -26.2023    4.1298  -31.2641 C   0  0  0  0  0  0  0  0  0  0  0  0
  -25.7284    2.8248  -35.3012 C   0  0  0  0  0  0  0  0  0  0  0  0
  -25.4680    6.0877  -29.5831 C   0  0  0  0  0  0  0  0  0  0  0  0
  -25.0942    0.1752  -34.5041 C   0  0  0  0  0  0  0  0  0  0  0  0
  -24.9873    3.2800  -31.4052 C   0  0  0  0  0  0  0  0  0  0  0  0
  -24.5616    2.2103  -35.7884 C   0  0  0  0  0  0  0  0  0  0  0  0
  -24.2396    0.8920  -35.3706 C   0  0  0  0  0  0  0  0  0  0  0  0
  -24.1106    6.6103  -30.1188 C   0  0  0  0  0  0  0  0  0  0  0  0
  -23.8915    6.6916  -31.5364 C   0  0  0  0  0  0  0  0  0  0  0  0
  -23.5406    1.5887  -30.3713 C   0  0  0  0  0  0  0  0  0  0  0  0
  -23.0110   -1.5459  -31.0979 C   0  0  0  0  0  0  0  0  0  0  0  0
  -23.1490    0.9143  -31.6762 C   0  0  0  0  0  0  0  0  0  0  0  0
  -23.0707    6.9543  -29.2158 C   0  0  0  0  0  0  0  0  0  0  0  0
  -22.6454    7.1513  -32.0543 C   0  0  0  0  0  0  0  0  0  0  0  0
  -22.2307   -2.7121  -30.7534 C   0  0  0  0  0  0  0  0  0  0  0  0
  -22.3849   -0.3187  -31.3631 C   0  0  0  0  0  0  0  0  0  0  0  0
  -21.8132    7.4541  -29.7239 C   0  0  0  0  0  0  0  0  0  0  0  0
  -21.6128    7.5452  -31.1311 C   0  0  0  0  0  0  0  0  0  0  0  0
  -20.8153   -2.6225  -30.7871 C   0  0  0  0  0  0  0  0  0  0  0  0
  -20.9413   -0.2530  -31.3063 C   0  0  0  0  0  0  0  0  0  0  0  0
  -20.1797   -1.3824  -31.0764 C   0  0  0  0  0  0  0  0  0  0  0  0
  -19.9439   -3.7838  -30.4569 C   0  0  0  0  0  0  0  0  0  0  0  0
  -24.1262    3.4294  -32.2553 O   0  0  0  0  0  0  0  0  0  0  0  0
  -20.4405   -4.9994  -30.4548 O   0  0  0  0  0  0  0  0  0  0  0  0
  -18.7347   -3.5492  -30.0877 O   0  0  0  0  0  0  0  0  0  0  0  0
  -28.2866    4.7078  -31.6654 N   0  0  0  0  0  0  0  0  0  0  0  0
  -27.3704    3.7868  -31.9015 N   0  0  0  0  0  0  0  0  0  0  0  0
  -24.8298    2.2202  -30.5772 N   0  0  0  0  0  0  0  0  0  0  0  0
  1  2  2  0
  1  3  1  0
  2  4  1  0
  3  5  2  0
  4  6  2  0
  5  6  1  0
  5  9  1  0
  7  8  1  0
  7 39  1  0
  8 10  1  0
  9 11  1  0
  9 38  1  0
 10 12  2  0
 10 14  1  0
 11 13  2  0
 11 15  1  0
 12 16  1  0
 13 17  1  0
 13 39  1  0
 14 18  2  0
 15 20  1  0
 16 19  2  0
 17 35  2  0
 17 40  1  0
 18 19  1  0
 20 21  2  0
 20 25  1  0
 21 26  1  0
 22 24  1  0
 22 40  1  0
 23 27  2  0
 23 28  1  0
 24 28  1  0
 25 29  2  0
 26 30  2  0
 27 31  1  0
 28 32  2  0
 29 30  1  0
 31 33  2  0
 31 34  1  0
 32 33  1  0
 34 36  2  0
 34 37  1  0
 38 39  1  0
M  END
$$$$

     RDKit          3D

 36 40  0  0  0  0  0  0  0  0999 V2000
  -30.5469    7.7301  -29.5250 C   0  0  0  0  0  0  0  0  0  0  0  0
  -30.0372    7.4148  -28.2823 C   0  0  0  0  0  0  0  0  0  0  0  0
  -29.9443    7.2639  -30.6990 C   0  0  0  0  0  0  0  0  0  0  0  0
  -28.8204    6.4419  -30.5959 C   0  0  0  0  0  0  0  0  0  0  0  0
  -28.9225    6.6213  -28.1614 C   0  0  0  0  0  0  0  0  0  0  0  0
  -28.3178    6.1350  -29.3259 C   0  0  0  0  0  0  0  0  0  0  0  0
  -28.2063    5.7885  -31.7915 C   0  0  0  0  0  0  0  0  0  0  0  0
  -27.2116    3.0546  -32.4557 C   0  0  0  0  0  0  0  0  0  0  0  0
  -26.7783    1.7827  -32.6199 C   0  0  0  0  0  0  0  0  0  0  0  0
  -26.4528    3.9822  -31.7972 C   0  0  0  0  0  0  0  0  0  0  0  0
  -25.5420    1.3671  -32.1110 C   0  0  0  0  0  0  0  0  0  0  0  0
  -25.1503    0.0158  -32.1533 C   0  0  0  0  0  0  0  0  0  0  0  0
  -24.7351    2.3783  -31.5544 C   0  0  0  0  0  0  0  0  0  0  0  0
  -23.8935   -0.3677  -31.6448 C   0  0  0  0  0  0  0  0  0  0  0  0
  -23.5025    1.9893  -31.0532 C   0  0  0  0  0  0  0  0  0  0  0  0
  -23.0711    0.6523  -31.0919 C   0  0  0  0  0  0  0  0  0  0  0  0
  -22.5231    2.9149  -30.4498 C   0  0  0  0  0  0  0  0  0  0  0  0
  -22.2341   -1.9319  -30.8858 C   0  0  0  0  0  0  0  0  0  0  0  0
  -21.9574    6.8144  -34.3397 C   0  0  0  0  0  0  0  0  0  0  0  0
  -21.7900   -3.3348  -30.7043 C   0  0  0  0  0  0  0  0  0  0  0  0
  -21.9488    3.9652  -31.2332 C   0  0  0  0  0  0  0  0  0  0  0  0
  -21.9185    4.3014  -33.8213 C   0  0  0  0  0  0  0  0  0  0  0  0
  -21.7341    5.4655  -34.7444 C   0  0  0  0  0  0  0  0  0  0  0  0
  -21.4724   -0.8793  -30.3415 C   0  0  0  0  0  0  0  0  0  0  0  0
  -21.5967    7.7101  -35.4097 C   0  0  0  0  0  0  0  0  0  0  0  0
  -21.3306    3.7025  -32.5171 C   0  0  0  0  0  0  0  0  0  0  0  0
  -21.1650    6.9462  -36.4941 C   0  0  0  0  0  0  0  0  0  0  0  0
  -20.5928    7.4091  -37.7437 C   0  0  0  0  0  0  0  0  0  0  0  0
  -20.3527   -3.6807  -31.0140 C   0  0  0  0  0  0  0  0  0  0  0  0
  -20.1817   -5.2748  -30.9900 C   0  0  0  0  0  0  0  0  0  0  0  0
  -20.4886    2.8779  -32.5619 O   0  0  0  0  0  0  0  0  0  0  0  0
  -26.9188    5.2425  -31.4999 N   0  0  0  0  0  0  0  0  0  0  0  0
  -25.1808    3.6704  -31.3960 N   0  0  0  0  0  0  0  0  0  0  0  0
  -23.4226   -1.6695  -31.5520 N   0  0  0  0  0  0  0  0  0  0  0  0
  -21.8629    0.3647  -30.5531 N   0  0  0  0  0  0  0  0  0  0  0  0
  -21.2394    5.6020  -36.0856 N   0  0  0  0  0  0  0  0  0  0  0  0
  1  2  2  0
  1  3  1  0
  2  5  1  0
  3  4  2  0
  4  6  1  0
  4  7  1  0
  5  6  2  0
  7 32  1  0
  8  9  2  0
  8 10  1  0
  9 11  1  0
 10 32  1  0
 10 33  2  0
 11 12  1  0
 11 13  2  0
 12 14  1  0
 13 15  1  0
 13 33  1  0
 14 16  1  0
 14 34  2  0
 15 16  2  0
 15 17  1  0
 16 35  1  0
 17 21  1  0
 18 20  1  0
 18 24  1  0
 18 34  1  0
 19 23  1  0
 19 25  1  0
 20 29  1  0
 21 26  1  0
 22 23  1  0
 22 26  1  0
 23 36  1  0
 24 35  2  0
 25 27  1  0
 26 31  2  0
 27 28  1  0
 27 36  1  0
 29 30  1  0
M  END
$$$$

     RDKit          3D

 26 29  0  0  0  0  0  0  0  0999 V2000
  -27.9956    0.5214  -33.4129 C   0  0  0  0  0  0  0  0  0  0  0  0
  -27.6119   -0.3893  -32.4291 C   0  0  0  0  0  0  0  0  0  0  0  0
  -27.4746    2.2186  -35.0866 C   0  0  0  0  0  0  0  0  0  0  0  0
  -27.4459    3.7199  -34.5932 C   0  0  0  0  0  0  0  0  0  0  0  0
  -27.0429    1.2229  -34.1552 C   0  0  0  0  0  0  0  0  0  0  0  0
  -26.2597   -0.5260  -32.1435 C   0  0  0  0  0  0  0  0  0  0  0  0
  -25.6619    1.1088  -33.8552 C   0  0  0  0  0  0  0  0  0  0  0  0
  -25.2903    0.1771  -32.8567 C   0  0  0  0  0  0  0  0  0  0  0  0
  -24.6736    1.9213  -34.5600 C   0  0  0  0  0  0  0  0  0  0  0  0
  -24.3067   -1.0886  -31.3131 C   0  0  0  0  0  0  0  0  0  0  0  0
  -24.3704    3.1505  -33.9629 C   0  0  0  0  0  0  0  0  0  0  0  0
  -24.0152   -0.2078  -32.3631 C   0  0  0  0  0  0  0  0  0  0  0  0
  -24.0597    1.4360  -35.6910 C   0  0  0  0  0  0  0  0  0  0  0  0
  -23.2762   -1.6703  -30.4004 C   0  0  0  0  0  0  0  0  0  0  0  0
  -23.4122    3.9761  -34.5738 C   0  0  0  0  0  0  0  0  0  0  0  0
  -23.1313    2.2743  -36.3042 C   0  0  0  0  0  0  0  0  0  0  0  0
  -22.9592    5.2037  -33.8798 C   0  0  0  0  0  0  0  0  0  0  0  0
  -23.1414    5.4446  -32.5078 C   0  0  0  0  0  0  0  0  0  0  0  0
  -22.7754    3.5125  -35.7254 C   0  0  0  0  0  0  0  0  0  0  0  0
  -22.6678    6.6531  -31.9477 C   0  0  0  0  0  0  0  0  0  0  0  0
  -22.3461    6.2234  -34.6284 C   0  0  0  0  0  0  0  0  0  0  0  0
  -21.9851    7.4050  -34.0493 C   0  0  0  0  0  0  0  0  0  0  0  0
  -28.3395    2.1914  -35.7924 O   0  0  0  0  0  0  0  0  0  0  0  0
  -25.6499   -1.2998  -31.2369 O   0  0  0  0  0  0  0  0  0  0  0  0
  -22.6760    6.9008  -30.6357 N   0  0  0  0  0  0  0  0  0  0  0  0
  -22.1284    7.6146  -32.7100 N   0  0  0  0  0  0  0  0  0  0  0  0
  1  2  2  0
  1  5  1  0
  2  6  1  0
  3  4  1  0
  3  5  1  0
  3 23  2  0
  5  7  2  0
  6  8  2  0
  6 24  1  0
  7  8  1  0
  7  9  1  0
  8 12  1  0
  9 11  2  0
  9 13  1  0
 10 12  1  0
 10 14  1  0
 10 24  1  0
 11 15  1  0
 13 16  2  0
 15 17  1  0
 15 19  2  0
 16 19  1  0
 17 18  1  0
 17 21  2  0
 18 20  1  0
 20 25  2  0
 20 26  1  0
 21 22  1  0
 22 26  2  0
M  END
$$$$

     RDKit          3D

 30 35  0  0  0  0  0  0  0  0999 V2000
  -30.4424    0.7900  -34.3517 C   0  0  0  0  0  0  0  0  0  0  0  0
  -29.9527   -0.5329  -34.4877 C   0  0  0  0  0  0  0  0  0  0  0  0
  -29.6221    1.7342  -33.6874 C   0  0  0  0  0  0  0  0  0  0  0  0
  -29.3206    3.9845  -32.8074 C   0  0  0  0  0  0  0  0  0  0  0  0
  -29.2221    6.2445  -31.9362 C   0  0  0  0  0  0  0  0  0  0  0  0
  -28.6876   -0.9232  -33.9761 C   0  0  0  0  0  0  0  0  0  0  0  0
  -28.3424    1.3012  -33.1449 C   0  0  0  0  0  0  0  0  0  0  0  0
  -28.0336    3.6416  -32.2785 C   0  0  0  0  0  0  0  0  0  0  0  0
  -27.8808    0.0087  -33.3775 C   0  0  0  0  0  0  0  0  0  0  0  0
  -27.8827    5.9668  -31.4246 C   0  0  0  0  0  0  0  0  0  0  0  0
  -27.5004    2.2721  -32.4607 C   0  0  0  0  0  0  0  0  0  0  0  0
  -27.3658    4.6830  -31.5602 C   0  0  0  0  0  0  0  0  0  0  0  0
  -26.5143   -0.3939  -32.9718 C   0  0  0  0  0  0  0  0  0  0  0  0
  -25.7387    0.5505  -32.1653 C   0  0  0  0  0  0  0  0  0  0  0  0
  -24.7191   -0.2730  -31.3657 C   0  0  0  0  0  0  0  0  0  0  0  0
  -22.7711    0.9371  -32.2259 C   0  0  0  0  0  0  0  0  0  0  0  0
  -22.3482   -0.6027  -30.5999 C   0  0  0  0  0  0  0  0  0  0  0  0
  -21.4284    1.0302  -31.9775 C   0  0  0  0  0  0  0  0  0  0  0  0
  -20.9997    0.1807  -30.9049 C   0  0  0  0  0  0  0  0  0  0  0  0
  -20.5283    1.8378  -32.8111 C   0  0  0  0  0  0  0  0  0  0  0  0
  -18.8054    2.6831  -33.7323 C   0  0  0  0  0  0  0  0  0  0  0  0
  -25.0371   -1.2416  -30.7380 O   0  0  0  0  0  0  0  0  0  0  0  0
  -30.0893    3.0793  -33.4964 N   0  0  0  0  0  0  0  0  0  0  0  0
  -29.8323    5.2328  -32.5967 N   0  0  0  0  0  0  0  0  0  0  0  0
  -26.3493    1.8117  -31.9413 N   0  0  0  0  0  0  0  0  0  0  0  0
  -23.3930    0.0941  -31.3963 N   0  0  0  0  0  0  0  0  0  0  0  0
  -20.9423    2.5563  -33.8696 N   0  0  0  0  0  0  0  0  0  0  0  0
  -19.8990    3.0808  -34.4488 N   0  0  0  0  0  0  0  0  0  0  0  0
  -19.2094    1.9381  -32.6995 N   0  0  0  0  0  0  0  0  0  0  0  0
  -26.2931    4.5296  -30.9924 F   0  0  0  0  0  0  0  0  0  0  0  0
  1  2  2  0
  1  3  1  0
  2  6  1  0
  3  7  2  0
  3 23  1  0
  4  8  1  0
  4 23  2  0
  4 24  1  0
  5 10  1  0
  5 24  2  0
  6  9  2  0
  7  9  1  0
  7 11  1  0
  8 11  1  0
  8 12  1  0
  9 13  1  0
 10 12  2  0
 11 25  2  0
 12 30  1  0
 13 14  1  0
 14 15  1  0
 14 25  1  0
 15 22  2  0
 15 26  1  0
 16 18  1  0
 16 26  1  0
 17 19  1  0
 17 26  1  0
 18 19  1  0
 18 20  2  3
 20 27  1  0
 20 29  1  0
 21 28  1  0
 21 29  1  0
 27 28  1  0
M  END
$$$$

     RDKit          3D

 40 45  0  0  0  0  0  0  0  0999 V2000
  -30.7768    0.9660  -34.1011 C   0  0  0  0  0  0  0  0  0  0  0  0
  -30.7355    3.3281  -33.6586 C   0  0  0  0  0  0  0  0  0  0  0  0
  -30.3549   -0.3323  -34.7856 C   0  0  0  0  0  0  0  0  0  0  0  0
  -29.4556    1.0022  -34.4830 C   0  0  0  0  0  0  0  0  0  0  0  0
  -29.2446    3.2741  -33.3955 C   0  0  0  0  0  0  0  0  0  0  0  0
  -28.6029    2.0825  -33.7452 C   0  0  0  0  0  0  0  0  0  0  0  0
  -28.4787    4.3497  -32.9382 C   0  0  0  0  0  0  0  0  0  0  0  0
  -27.4705   -1.3332  -31.9732 C   0  0  0  0  0  0  0  0  0  0  0  0
  -27.6711   -0.2745  -32.7896 C   0  0  0  0  0  0  0  0  0  0  0  0
  -27.3780    7.3678  -33.2205 C   0  0  0  0  0  0  0  0  0  0  0  0
  -27.2129    8.4620  -34.0742 C   0  0  0  0  0  0  0  0  0  0  0  0
  -27.1947    1.9261  -33.4896 C   0  0  0  0  0  0  0  0  0  0  0  0
  -27.0772    4.2619  -32.8454 C   0  0  0  0  0  0  0  0  0  0  0  0
  -26.6690    0.5871  -33.2078 C   0  0  0  0  0  0  0  0  0  0  0  0
  -26.2126   -1.5645  -31.5769 C   0  0  0  0  0  0  0  0  0  0  0  0
  -26.3973    3.1015  -33.2658 C   0  0  0  0  0  0  0  0  0  0  0  0
  -26.3576    6.3908  -33.1374 C   0  0  0  0  0  0  0  0  0  0  0  0
  -26.0283    8.6142  -34.8130 C   0  0  0  0  0  0  0  0  0  0  0  0
  -25.4687    0.3891  -32.7019 C   0  0  0  0  0  0  0  0  0  0  0  0
  -25.1501   -0.7225  -31.8926 C   0  0  0  0  0  0  0  0  0  0  0  0
  -25.1905    6.5197  -33.9167 C   0  0  0  0  0  0  0  0  0  0  0  0
  -25.0122    7.6671  -34.7270 C   0  0  0  0  0  0  0  0  0  0  0  0
  -24.4928    2.5933  -35.7873 C   0  0  0  0  0  0  0  0  0  0  0  0
  -24.1349    2.7157  -34.3830 C   0  0  0  0  0  0  0  0  0  0  0  0
  -24.1056    2.9542  -32.2065 C   0  0  0  0  0  0  0  0  0  0  0  0
  -23.5271    2.2443  -36.7268 C   0  0  0  0  0  0  0  0  0  0  0  0
  -22.8267    2.5619  -33.9690 C   0  0  0  0  0  0  0  0  0  0  0  0
  -22.2000    1.9833  -36.3024 C   0  0  0  0  0  0  0  0  0  0  0  0
  -21.8523    2.1424  -34.9088 C   0  0  0  0  0  0  0  0  0  0  0  0
  -21.6794    2.9438  -30.3510 C   0  0  0  0  0  0  0  0  0  0  0  0
  -21.5672    3.0720  -31.7790 C   0  0  0  0  0  0  0  0  0  0  0  0
  -20.4454    3.0725  -29.5505 C   0  0  0  0  0  0  0  0  0  0  0  0
  -20.3010    3.4355  -32.3905 C   0  0  0  0  0  0  0  0  0  0  0  0
  -19.1120    3.5903  -31.5109 C   0  0  0  0  0  0  0  0  0  0  0  0
  -26.4352    5.3258  -32.2803 O   0  0  0  0  0  0  0  0  0  0  0  0
  -21.1796    1.5278  -37.1861 O   0  0  0  0  0  0  0  0  0  0  0  0
  -20.5267    2.9253  -28.2184 O   0  0  0  0  0  0  0  0  0  0  0  0
  -24.9497    2.9882  -33.3119 N   0  0  0  0  0  0  0  0  0  0  0  0
  -22.7737    2.8432  -32.5826 N   0  0  0  0  0  0  0  0  0  0  0  0
  -19.2257    3.2122  -30.1216 N   0  0  0  0  0  0  0  0  0  0  0  0
  1  3  1  0
  1  4  1  0
  2  5  1  0
  4  6  1  0
  5  6  1  0
  5  7  2  0
  6 12  1  0
  7 13  1  0
  8  9  1  0
  8 15  2  0
  9 14  1  0
 10 11  2  0
 10 17  1  0
 11 18  1  0
 12 14  1  0
 12 16  1  0
 13 16  2  0
 13 35  1  0
 14 19  1  0
 15 20  1  0
 16 38  1  0
 17 21  2  0
 17 35  1  0
 18 22  2  0
 19 20  2  0
 21 22  1  0
 23 24  2  0
 23 26  1  0
 24 27  1  0
 24 38  1  0
 25 38  1  0
 25 39  1  0
 26 28  2  0
 27 29  2  0
 27 39  1  0
 28 29  1  0
 28 36  1  0
 30 31  2  0
 30 32  1  0
 31 33  1  0
 31 39  1  0
 32 37  2  0
 32 40  1  0
 33 34  2  0
 34 40  1  0
M  END
$$$$

     RDKit          3D

 37 40  0  0  0  0  0  0  0  0999 V2000
  -32.7356    2.0056  -33.9318 C   0  0  0  0  0  0  0  0  0  0  0  0
  -32.2456    0.5534  -33.7782 C   0  0  0  0  0  0  0  0  0  0  0  0
  -31.6395    2.9393  -33.9616 C   0  0  0  0  0  0  0  0  0  0  0  0
  -30.9070    0.2521  -33.5720 C   0  0  0  0  0  0  0  0  0  0  0  0
  -30.2895    2.6166  -33.8429 C   0  0  0  0  0  0  0  0  0  0  0  0
  -29.9386    1.2869  -33.5966 C   0  0  0  0  0  0  0  0  0  0  0  0
  -29.6071    4.5099  -36.7401 C   0  0  0  0  0  0  0  0  0  0  0  0
  -29.2467    3.7177  -33.8619 C   0  0  0  0  0  0  0  0  0  0  0  0
  -28.2800    4.0372  -36.3306 C   0  0  0  0  0  0  0  0  0  0  0  0
  -28.1600    3.6626  -34.9459 C   0  0  0  0  0  0  0  0  0  0  0  0
  -27.1053    3.9537  -37.1675 C   0  0  0  0  0  0  0  0  0  0  0  0
  -26.9217    3.3122  -34.4150 C   0  0  0  0  0  0  0  0  0  0  0  0
  -26.4909    3.3899  -30.3086 C   0  0  0  0  0  0  0  0  0  0  0  0
  -26.1397    2.1215  -32.4397 C   0  0  0  0  0  0  0  0  0  0  0  0
  -25.9104    2.2193  -31.0597 C   0  0  0  0  0  0  0  0  0  0  0  0
  -25.7970    3.2068  -35.2328 C   0  0  0  0  0  0  0  0  0  0  0  0
  -25.8631    3.4806  -36.6149 C   0  0  0  0  0  0  0  0  0  0  0  0
  -25.5569    1.0257  -33.1459 C   0  0  0  0  0  0  0  0  0  0  0  0
  -25.0611    1.2930  -30.3879 C   0  0  0  0  0  0  0  0  0  0  0  0
  -24.7508    0.1050  -32.4837 C   0  0  0  0  0  0  0  0  0  0  0  0
  -24.7215    3.1363  -37.4578 C   0  0  0  0  0  0  0  0  0  0  0  0
  -24.4910    0.2195  -31.1198 C   0  0  0  0  0  0  0  0  0  0  0  0
  -22.6616   -2.8169  -30.7403 C   0  0  0  0  0  0  0  0  0  0  0  0
  -22.5334   -1.3164  -30.9564 C   0  0  0  0  0  0  0  0  0  0  0  0
  -21.3157   -0.8392  -30.1691 C   0  0  0  0  0  0  0  0  0  0  0  0
  -20.4778   -3.8831  -30.5520 C   0  0  0  0  0  0  0  0  0  0  0  0
  -19.5701   -2.7209  -30.3390 C   0  0  0  0  0  0  0  0  0  0  0  0
  -19.2233    0.7262  -29.6337 C   0  0  0  0  0  0  0  0  0  0  0  0
  -18.9621   -0.4135  -30.5847 C   0  0  0  0  0  0  0  0  0  0  0  0
  -30.6112    3.7907  -36.8876 O   0  0  0  0  0  0  0  0  0  0  0  0
  -29.7320    5.8106  -36.4928 O   0  0  0  0  0  0  0  0  0  0  0  0
  -26.8714    3.0945  -33.0775 O   0  0  0  0  0  0  0  0  0  0  0  0
  -24.5686    3.7694  -38.5562 O   0  0  0  0  0  0  0  0  0  0  0  0
  -23.7314   -0.7329  -30.4465 O   0  0  0  0  0  0  0  0  0  0  0  0
  -23.7831    2.2549  -37.2537 O   0  0  0  0  0  0  0  0  0  0  0  0
  -21.7422   -3.5829  -29.9263 N   0  0  0  0  0  0  0  0  0  0  0  0
  -20.0628   -1.3712  -30.8179 N   0  0  0  0  0  0  0  0  0  0  0  0
  1  2  1  0
  1  3  1  0
  2  4  2  0
  3  5  1  0
  4  6  1  0
  5  6  2  0
  5  8  1  0
  7  9  1  0
  7 30  2  0
  7 31  1  0
  8 10  1  0
  9 10  2  0
  9 11  1  0
 10 12  1  0
 11 17  2  0
 12 16  2  0
 12 32  1  0
 13 15  1  0
 14 15  2  0
 14 18  1  0
 14 32  1  0
 15 19  1  0
 16 17  1  0
 17 21  1  0
 18 20  1  0
 19 22  1  0
 20 22  2  0
 21 33  2  0
 21 35  1  0
 22 34  1  0
 23 24  1  0
 23 36  1  0
 24 25  1  0
 24 34  1  0
 25 37  1  0
 26 27  1  0
 26 36  1  0
 27 37  1  0
 28 29  1  0
 29 37  1  0
M  END
$$$$

     RDKit          3D

 42 47  0  0  0  0  0  0  0  0999 V2000
  -29.3550    0.0013  -33.6517 C   0  0  0  0  0  0  0  0  0  0  0  0
  -28.8497   -0.9716  -32.8367 C   0  0  0  0  0  0  0  0  0  0  0  0
  -28.4942    0.9292  -34.2493 C   0  0  0  0  0  0  0  0  0  0  0  0
  -27.4915   -0.9489  -32.5170 C   0  0  0  0  0  0  0  0  0  0  0  0
  -27.1553    0.9288  -33.9621 C   0  0  0  0  0  0  0  0  0  0  0  0
  -26.9049    4.5062  -32.3234 C   0  0  0  0  0  0  0  0  0  0  0  0
  -26.6291    0.0010  -33.0474 C   0  0  0  0  0  0  0  0  0  0  0  0
  -26.6636    2.7058  -35.6226 C   0  0  0  0  0  0  0  0  0  0  0  0
  -26.4403    3.4507  -31.5101 C   0  0  0  0  0  0  0  0  0  0  0  0
  -25.9080    6.3972  -33.5414 C   0  0  0  0  0  0  0  0  0  0  0  0
  -25.4131    3.3488  -36.0146 C   0  0  0  0  0  0  0  0  0  0  0  0
  -24.9586    1.8102  -34.4434 C   0  0  0  0  0  0  0  0  0  0  0  0
  -25.0385    3.5523  -31.3634 C   0  0  0  0  0  0  0  0  0  0  0  0
  -24.7321   -0.6731  -31.6541 C   0  0  0  0  0  0  0  0  0  0  0  0
  -24.6892    4.6917  -32.1043 C   0  0  0  0  0  0  0  0  0  0  0  0
  -24.3475    2.5718  -35.3934 C   0  0  0  0  0  0  0  0  0  0  0  0
  -23.3157   -0.7883  -31.4480 C   0  0  0  0  0  0  0  0  0  0  0  0
  -23.2606    5.1710  -32.3083 C   0  0  0  0  0  0  0  0  0  0  0  0
  -22.8208   -2.0617  -31.0944 C   0  0  0  0  0  0  0  0  0  0  0  0
  -22.5957    4.5846  -29.3836 C   0  0  0  0  0  0  0  0  0  0  0  0
  -22.4183    0.2865  -31.5832 C   0  0  0  0  0  0  0  0  0  0  0  0
  -22.2451    4.1890  -27.9565 C   0  0  0  0  0  0  0  0  0  0  0  0
  -22.4173    5.0522  -26.9032 C   0  0  0  0  0  0  0  0  0  0  0  0
  -22.0529    4.4404  -31.8081 C   0  0  0  0  0  0  0  0  0  0  0  0
  -22.0458    4.7174  -25.5986 C   0  0  0  0  0  0  0  0  0  0  0  0
  -21.7394    2.9264  -27.6915 C   0  0  0  0  0  0  0  0  0  0  0  0
  -21.4832   -2.3157  -30.8398 C   0  0  0  0  0  0  0  0  0  0  0  0
  -21.4719    3.4264  -25.3556 C   0  0  0  0  0  0  0  0  0  0  0  0
  -21.4217    2.5624  -26.4243 C   0  0  0  0  0  0  0  0  0  0  0  0
  -21.0680   -0.0024  -31.3323 C   0  0  0  0  0  0  0  0  0  0  0  0
  -20.6000   -1.2669  -30.9922 C   0  0  0  0  0  0  0  0  0  0  0  0
  -20.6058    3.0471  -30.2882 C   0  0  0  0  0  0  0  0  0  0  0  0
  -20.0539    2.2717  -31.4950 C   0  0  0  0  0  0  0  0  0  0  0  0
  -19.2086   -1.1582  -30.7930 C   0  0  0  0  0  0  0  0  0  0  0  0
  -25.4588   -1.2693  -30.8522 O   0  0  0  0  0  0  0  0  0  0  0  0
  -26.2945    1.7936  -34.6095 N   0  0  0  0  0  0  0  0  0  0  0  0
  -25.7949    5.2317  -32.6742 N   0  0  0  0  0  0  0  0  0  0  0  0
  -25.2711    0.0412  -32.6467 N   0  0  0  0  0  0  0  0  0  0  0  0
  -21.8199    3.9419  -30.5583 N   0  0  0  0  0  0  0  0  0  0  0  0
  -19.9702    0.8198  -31.2805 N   0  0  0  0  0  0  0  0  0  0  0  0
  -18.8952    0.1379  -31.0007 N   0  0  0  0  0  0  0  0  0  0  0  0
  -30.6552    0.0228  -33.8537 F   0  0  0  0  0  0  0  0  0  0  0  0
  1  2  2  0
  1  3  1  0
  1 42  1  0
  2  4  1  0
  3  5  2  0
  4  7  2  0
  5  7  1  0
  5 36  1  0
  6  9  1  0
  6 37  1  0
  7 38  1  0
  8 11  1  0
  8 36  1  0
  9 13  1  0
 10 37  1  0
 11 16  1  0
 12 16  1  0
 12 36  1  0
 13 15  1  0
 14 17  1  0
 14 35  2  0
 14 38  1  0
 15 18  2  3
 15 37  1  0
 17 19  2  0
 17 21  1  0
 18 24  1  0
 19 27  1  0
 20 22  1  0
 20 39  1  0
 21 30  2  0
 22 23  2  0
 22 26  1  0
 23 25  1  0
 24 39  1  0
 25 28  2  0
 26 29  2  0
 27 31  2  0
 28 29  1  0
 30 31  1  0
 30 40  1  0
 31 34  1  0
 32 33  1  0
 32 39  1  0
 33 40  1  0
 34 41  1  0
 40 41  1  0
M  END
$$$$

     RDKit          3D

 39 44  0  0  0  0  0  0  0  0999 V2000
  -30.8104   -0.8572  -36.1069 C   0  0  0  0  0  0  0  0  0  0  0  0
  -30.5191   -2.1259  -35.6103 C   0  0  0  0  0  0  0  0  0  0  0  0
  -30.1447    0.2517  -35.5837 C   0  0  0  0  0  0  0  0  0  0  0  0
  -29.5793   -2.3318  -34.5925 C   0  0  0  0  0  0  0  0  0  0  0  0
  -29.1841    0.1102  -34.5787 C   0  0  0  0  0  0  0  0  0  0  0  0
  -28.9316   -1.2051  -34.0728 C   0  0  0  0  0  0  0  0  0  0  0  0
  -28.4647    1.1838  -34.0023 C   0  0  0  0  0  0  0  0  0  0  0  0
  -28.4572    2.5860  -34.3254 C   0  0  0  0  0  0  0  0  0  0  0  0
  -28.0203   -1.3967  -33.0243 C   0  0  0  0  0  0  0  0  0  0  0  0
  -27.6006    0.9593  -32.9295 C   0  0  0  0  0  0  0  0  0  0  0  0
  -27.3678   -0.3156  -32.4537 C   0  0  0  0  0  0  0  0  0  0  0  0
  -27.0495    2.1801  -32.5072 C   0  0  0  0  0  0  0  0  0  0  0  0
  -26.7665    4.3281  -33.6080 C   0  0  0  0  0  0  0  0  0  0  0  0
  -26.5144    4.5107  -35.0898 C   0  0  0  0  0  0  0  0  0  0  0  0
  -25.0756    4.7370  -35.5595 C   0  0  0  0  0  0  0  0  0  0  0  0
  -25.0371    5.3165  -36.8696 C   0  0  0  0  0  0  0  0  0  0  0  0
  -23.7341    3.4738  -33.7882 C   0  0  0  0  0  0  0  0  0  0  0  0
  -23.8270    4.3469  -34.9726 C   0  0  0  0  0  0  0  0  0  0  0  0
  -23.8737    5.5029  -37.5210 C   0  0  0  0  0  0  0  0  0  0  0  0
  -22.9215    3.7902  -32.6213 C   0  0  0  0  0  0  0  0  0  0  0  0
  -22.5295   -1.7625  -30.9153 C   0  0  0  0  0  0  0  0  0  0  0  0
  -22.6442    4.5035  -35.6724 C   0  0  0  0  0  0  0  0  0  0  0  0
  -22.6755    5.1474  -36.9126 C   0  0  0  0  0  0  0  0  0  0  0  0
  -22.3403    1.5226  -29.8204 C   0  0  0  0  0  0  0  0  0  0  0  0
  -22.2384    2.9490  -30.3621 C   0  0  0  0  0  0  0  0  0  0  0  0
  -22.0721   -3.0680  -30.8740 C   0  0  0  0  0  0  0  0  0  0  0  0
  -22.1961    0.6388  -30.9776 C   0  0  0  0  0  0  0  0  0  0  0  0
  -22.0334    1.4856  -32.1383 C   0  0  0  0  0  0  0  0  0  0  0  0
  -21.6475   -0.7296  -30.8879 C   0  0  0  0  0  0  0  0  0  0  0  0
  -20.7305   -3.3477  -30.8733 C   0  0  0  0  0  0  0  0  0  0  0  0
  -20.2824   -0.9691  -30.8755 C   0  0  0  0  0  0  0  0  0  0  0  0
  -19.8081   -2.2811  -30.8481 C   0  0  0  0  0  0  0  0  0  0  0  0
  -26.3690    2.3836  -31.5177 O   0  0  0  0  0  0  0  0  0  0  0  0
  -24.1722    2.3466  -33.9462 O   0  0  0  0  0  0  0  0  0  0  0  0
  -22.7090    4.9334  -32.2047 O   0  0  0  0  0  0  0  0  0  0  0  0
  -21.2096    1.3855  -33.0017 O   0  0  0  0  0  0  0  0  0  0  0  0
  -27.4924    3.1006  -33.4099 N   0  0  0  0  0  0  0  0  0  0  0  0
  -22.5109    2.7456  -31.7928 N   0  0  0  0  0  0  0  0  0  0  0  0
  -26.1747   -0.7750  -31.3219 Cl  0  0  0  0  0  0  0  0  0  0  0  0
  1  2  2  0
  1  3  1  0
  2  4  1  0
  3  5  2  0
  4  6  2  0
  5  6  1  0
  5  7  1  0
  6  9  1  0
  7  8  1  0
  7 10  2  0
  8 37  1  0
  9 11  2  0
 10 11  1  0
 10 12  1  0
 11 39  1  0
 12 33  2  0
 12 37  1  0
 13 14  1  0
 13 37  1  0
 14 15  1  0
 15 16  1  0
 15 18  1  0
 16 19  2  0
 17 18  1  0
 17 20  1  0
 17 34  2  0
 18 22  2  0
 19 23  1  0
 20 35  2  0
 20 38  1  0
 21 26  2  0
 21 29  1  0
 22 23  1  0
 24 25  1  0
 24 27  1  0
 25 38  1  0
 26 30  1  0
 27 28  1  0
 27 29  1  0
 28 36  2  0
 28 38  1  0
 29 31  2  0
 30 32  2  0
 31 32  1  0
M  END
$$$$

     RDKit          3D

 59 63  0  0  0  0  0  0  0  0999 V2000
  -32.6502    1.6343  -34.3650 C   0  0  0  0  0  0  0  0  0  0  0  0
  -31.0232    1.6405  -34.5513 C   0  0  0  0  0  0  0  0  0  0  0  0
  -30.6542    0.1989  -34.9656 C   0  0  0  0  0  0  0  0  0  0  0  0
  -30.2376    2.1945  -33.4650 C   0  0  0  0  0  0  0  0  0  0  0  0
  -29.8110   -0.4588  -33.8069 C   0  0  0  0  0  0  0  0  0  0  0  0
  -29.7536    3.4713  -35.2333 C   0  0  0  0  0  0  0  0  0  0  0  0
  -29.0460    3.0428  -33.9956 C   0  0  0  0  0  0  0  0  0  0  0  0
  -28.8140    1.7177  -33.4600 C   0  0  0  0  0  0  0  0  0  0  0  0
  -28.5414    0.4349  -33.6641 C   0  0  0  0  0  0  0  0  0  0  0  0
  -28.5943    3.9713  -33.0793 C   0  0  0  0  0  0  0  0  0  0  0  0
  -28.3147    6.2469  -29.2356 C   0  0  0  0  0  0  0  0  0  0  0  0
  -27.9450    4.1248  -31.8691 C   0  0  0  0  0  0  0  0  0  0  0  0
  -27.5350    5.4317  -31.4807 C   0  0  0  0  0  0  0  0  0  0  0  0
  -27.3583   -0.3584  -33.7544 C   0  0  0  0  0  0  0  0  0  0  0  0
  -27.1747    5.8175  -30.1091 C   0  0  0  0  0  0  0  0  0  0  0  0
  -26.0480    0.1725  -34.0982 C   0  0  0  0  0  0  0  0  0  0  0  0
  -25.9672    1.5218  -34.5852 C   0  0  0  0  0  0  0  0  0  0  0  0
  -26.0332    6.7609  -29.9667 C   0  0  0  0  0  0  0  0  0  0  0  0
  -25.1340   -0.8163  -34.6107 C   0  0  0  0  0  0  0  0  0  0  0  0
  -25.0221    6.8849  -31.0193 C   0  0  0  0  0  0  0  0  0  0  0  0
  -24.7257    2.0606  -35.1297 C   0  0  0  0  0  0  0  0  0  0  0  0
  -24.2744   -1.4287  -31.3531 C   0  0  0  0  0  0  0  0  0  0  0  0
  -24.2359    2.4521  -31.8371 C   0  0  0  0  0  0  0  0  0  0  0  0
  -23.4946    2.0991  -34.2419 C   0  0  0  0  0  0  0  0  0  0  0  0
  -23.6644    3.0226  -33.0932 C   0  0  0  0  0  0  0  0  0  0  0  0
  -23.6150    6.7872  -30.6730 C   0  0  0  0  0  0  0  0  0  0  0  0
  -23.1080   -0.5263  -31.2209 C   0  0  0  0  0  0  0  0  0  0  0  0
  -23.0979    1.9587  -30.9340 C   0  0  0  0  0  0  0  0  0  0  0  0
  -23.0196    2.9176  -29.7738 C   0  0  0  0  0  0  0  0  0  0  0  0
  -23.0235    5.5428  -30.3916 C   0  0  0  0  0  0  0  0  0  0  0  0
  -22.8081    8.0350  -30.4991 C   0  0  0  0  0  0  0  0  0  0  0  0
  -22.3278    4.1388  -25.8880 C   0  0  0  0  0  0  0  0  0  0  0  0
  -22.0241    5.5441  -29.3246 C   0  0  0  0  0  0  0  0  0  0  0  0
  -21.7782   -2.5706  -30.2044 C   0  0  0  0  0  0  0  0  0  0  0  0
  -21.8935   -1.1693  -30.7264 C   0  0  0  0  0  0  0  0  0  0  0  0
  -21.6091    2.4273  -27.6614 C   0  0  0  0  0  0  0  0  0  0  0  0
  -21.6903    3.0488  -29.0746 C   0  0  0  0  0  0  0  0  0  0  0  0
  -21.5764    7.9450  -29.6443 C   0  0  0  0  0  0  0  0  0  0  0  0
  -21.3621    3.5130  -26.5982 C   0  0  0  0  0  0  0  0  0  0  0  0
  -20.9326   -4.8530  -30.7888 C   0  0  0  0  0  0  0  0  0  0  0  0
  -20.9444   -3.4234  -31.1272 C   0  0  0  0  0  0  0  0  0  0  0  0
  -20.5628    0.5877  -26.2141 C   0  0  0  0  0  0  0  0  0  0  0  0
  -20.4628    1.3951  -27.5465 C   0  0  0  0  0  0  0  0  0  0  0  0
  -20.6433    2.1842  -29.8577 C   0  0  0  0  0  0  0  0  0  0  0  0
  -19.6450   -1.4396  -27.1229 C   0  0  0  0  0  0  0  0  0  0  0  0
  -19.2957   -0.6679  -28.3964 C   0  0  0  0  0  0  0  0  0  0  0  0
  -19.3054   -0.3874  -26.0587 C   0  0  0  0  0  0  0  0  0  0  0  0
  -19.2141    2.7082  -29.6638 C   0  0  0  0  0  0  0  0  0  0  0  0
  -30.7777    2.6622  -35.5373 O   0  0  0  0  0  0  0  0  0  0  0  0
  -29.2855    4.4034  -35.9144 O   0  0  0  0  0  0  0  0  0  0  0  0
  -25.4243   -1.0019  -31.0196 O   0  0  0  0  0  0  0  0  0  0  0  0
  -25.0149    3.4725  -35.4737 O   0  0  0  0  0  0  0  0  0  0  0  0
  -23.3829    0.6263  -30.4056 O   0  0  0  0  0  0  0  0  0  0  0  0
  -22.8866   -3.1928  -29.7652 O   0  0  0  0  0  0  0  0  0  0  0  0
  -22.9344    4.0640  -32.8431 O   0  0  0  0  0  0  0  0  0  0  0  0
  -22.4876    1.7141  -34.5783 O   0  0  0  0  0  0  0  0  0  0  0  0
  -21.2560    4.4107  -29.1516 O   0  0  0  0  0  0  0  0  0  0  0  0
  -21.1881    6.6144  -29.3081 O   0  0  0  0  0  0  0  0  0  0  0  0
  -20.3819    0.5983  -28.6425 O   0  0  0  0  0  0  0  0  0  0  0  0
  1  2  1  0
  2  3  1  0
  2  4  1  0
  2 49  1  0
  3  5  1  0
  4  8  1  0
  5  9  1  0
  6  7  1  0
  6 49  1  0
  6 50  2  0
  7  8  1  0
  7 10  1  0
  8  9  1  0
  9 14  1  0
 10 12  2  3
 11 15  1  0
 12 13  1  0
 13 15  1  0
 14 16  1  0
 15 18  1  0
 16 17  1  0
 16 19  1  0
 17 21  1  0
 18 20  1  0
 20 26  1  0
 21 24  1  0
 21 52  1  0
 22 27  1  0
 22 51  2  0
 23 25  1  0
 23 28  1  0
 24 25  1  0
 24 56  2  0
 25 55  1  0
 26 30  1  0
 26 31  1  0
 27 35  1  0
 27 53  1  0
 28 29  1  0
 28 53  1  0
 29 37  1  0
 30 33  1  0
 31 38  1  0
 32 39  2  0
 33 57  1  0
 33 58  1  0
 34 35  1  0
 34 41  1  0
 34 54  1  0
 36 37  1  0
 36 39  1  0
 36 43  1  0
 37 44  1  0
 37 57  1  0
 38 58  1  0
 40 41  1  0
 42 43  1  0
 42 47  1  0
 43 59  1  0
 44 48  1  0
 45 46  1  0
 45 47  1  0
 46 59  1  0
M  END
$$$$

     RDKit          3D

 50 53  0  0  0  0  0  0  0  0999 V2000
  -31.6224    0.8485  -35.8128 C   0  0  0  0  0  0  0  0  0  0  0  0
  -31.5766    2.7687  -33.8763 C   0  0  0  0  0  0  0  0  0  0  0  0
  -30.3051    1.8511  -34.0019 C   0  0  0  0  0  0  0  0  0  0  0  0
  -29.9705   -0.6360  -34.7742 C   0  0  0  0  0  0  0  0  0  0  0  0
  -28.9460   -0.9737  -33.7064 C   0  0  0  0  0  0  0  0  0  0  0  0
  -27.8507    5.2712  -32.1026 C   0  0  0  0  0  0  0  0  0  0  0  0
  -27.7336    6.3750  -31.3045 C   0  0  0  0  0  0  0  0  0  0  0  0
  -27.1026    3.0641  -32.8685 C   0  0  0  0  0  0  0  0  0  0  0  0
  -26.9712    4.1831  -31.9674 C   0  0  0  0  0  0  0  0  0  0  0  0
  -26.7151    6.4581  -30.3569 C   0  0  0  0  0  0  0  0  0  0  0  0
  -26.6759    7.7059  -29.4810 C   0  0  0  0  0  0  0  0  0  0  0  0
  -26.1738    1.4282  -34.5890 C   0  0  0  0  0  0  0  0  0  0  0  0
  -25.9900    2.2045  -33.2745 C   0  0  0  0  0  0  0  0  0  0  0  0
  -26.1711    2.4591  -35.7454 C   0  0  0  0  0  0  0  0  0  0  0  0
  -25.9673    4.1885  -30.9806 C   0  0  0  0  0  0  0  0  0  0  0  0
  -25.7381    5.4072  -30.2278 C   0  0  0  0  0  0  0  0  0  0  0  0
  -25.6312    5.9198  -34.7703 C   0  0  0  0  0  0  0  0  0  0  0  0
  -24.9608    0.4979  -34.7390 C   0  0  0  0  0  0  0  0  0  0  0  0
  -25.1357    2.9945  -30.6693 C   0  0  0  0  0  0  0  0  0  0  0  0
  -24.6739    0.6690  -31.1694 C   0  0  0  0  0  0  0  0  0  0  0  0
  -24.1244    5.7634  -34.8525 C   0  0  0  0  0  0  0  0  0  0  0  0
  -23.6960    5.8521  -32.3049 C   0  0  0  0  0  0  0  0  0  0  0  0
  -23.4690    6.2233  -29.7612 C   0  0  0  0  0  0  0  0  0  0  0  0
  -23.3840    6.2827  -33.6169 C   0  0  0  0  0  0  0  0  0  0  0  0
  -23.1001   -1.7065  -30.6542 C   0  0  0  0  0  0  0  0  0  0  0  0
  -23.0656    6.4560  -31.1486 C   0  0  0  0  0  0  0  0  0  0  0  0
  -22.7228    6.7938  -28.6868 C   0  0  0  0  0  0  0  0  0  0  0  0
  -22.5001   -0.4781  -30.9618 C   0  0  0  0  0  0  0  0  0  0  0  0
  -22.3003   -2.8385  -30.5115 C   0  0  0  0  0  0  0  0  0  0  0  0
  -22.3577    7.2207  -33.8141 C   0  0  0  0  0  0  0  0  0  0  0  0
  -21.9931    7.3739  -31.3666 C   0  0  0  0  0  0  0  0  0  0  0  0
  -21.5958    7.6374  -28.9798 C   0  0  0  0  0  0  0  0  0  0  0  0
  -21.6686    7.7737  -32.7020 C   0  0  0  0  0  0  0  0  0  0  0  0
  -21.2534    7.9217  -30.2743 C   0  0  0  0  0  0  0  0  0  0  0  0
  -21.0961   -0.4175  -31.1307 C   0  0  0  0  0  0  0  0  0  0  0  0
  -20.9297   -2.7680  -30.6607 C   0  0  0  0  0  0  0  0  0  0  0  0
  -20.3333   -1.5583  -31.0554 C   0  0  0  0  0  0  0  0  0  0  0  0
  -20.3816    0.8902  -31.4141 C   0  0  0  0  0  0  0  0  0  0  0  0
  -20.0525   -3.9988  -30.4564 C   0  0  0  0  0  0  0  0  0  0  0  0
  -28.2186    3.0296  -33.5084 O   0  0  0  0  0  0  0  0  0  0  0  0
  -27.3736    0.6452  -34.6274 O   0  0  0  0  0  0  0  0  0  0  0  0
  -24.6091    5.4922  -29.4368 O   0  0  0  0  0  0  0  0  0  0  0  0
  -24.0339    3.1266  -30.0468 O   0  0  0  0  0  0  0  0  0  0  0  0
  -23.3028    0.7086  -31.1132 O   0  0  0  0  0  0  0  0  0  0  0  0
  -20.4731   -5.1301  -31.0654 O   0  0  0  0  0  0  0  0  0  0  0  0
  -18.9676   -3.9268  -29.9575 O   0  0  0  0  0  0  0  0  0  0  0  0
  -19.0812    0.7989  -31.3331 O   0  0  0  0  0  0  0  0  0  0  0  0
  -30.8048    0.5661  -34.5772 N   0  0  0  0  0  0  0  0  0  0  0  0
  -27.7462   -0.2335  -33.6828 N   0  0  0  0  0  0  0  0  0  0  0  0
  -25.4236    1.8276  -31.2900 N   0  0  0  0  0  0  0  0  0  0  0  0
  1 48  1  0
  2  3  1  0
  3 48  1  0
  4  5  1  0
  4 48  1  0
  5 49  2  3
  6  7  2  0
  6  9  1  0
  7 10  1  0
  8  9  1  0
  8 13  1  0
  8 40  1  0
  9 15  2  0
 10 11  1  0
 10 16  2  0
 12 13  1  0
 12 14  1  0
 12 18  1  0
 12 41  1  0
 15 16  1  0
 15 19  1  0
 16 42  1  0
 17 21  1  0
 19 43  2  0
 19 50  1  0
 20 44  1  0
 20 50  1  0
 21 24  1  0
 22 24  2  0
 22 26  1  0
 23 26  2  0
 23 27  1  0
 23 42  1  0
 24 30  1  0
 25 28  2  0
 25 29  1  0
 26 31  1  0
 27 32  2  0
 28 35  1  0
 28 44  1  0
 29 36  2  0
 30 33  2  0
 31 33  1  0
 31 34  2  0
 32 34  1  0
 35 37  2  0
 35 38  1  0
 36 37  1  0
 36 39  1  0
 38 47  1  0
 39 45  2  0
 39 46  1  0
 41 49  1  0
M  END
$$$$
