
     RDKit          3D

 48 54  0  0  0  0  0  0  0  0999 V2000
  -30.0472    3.3136  -32.9321 C   0  0  0  0  0  0  0  0  0  0  0  0
  -30.0768    3.5582  -38.6754 C   0  0  0  0  0  0  0  0  0  0  0  0
  -29.8422    1.9841  -33.3416 C   0  0  0  0  0  0  0  0  0  0  0  0
  -29.7298    4.2947  -39.8396 C   0  0  0  0  0  0  0  0  0  0  0  0
  -29.1023    3.1829  -37.7739 C   0  0  0  0  0  0  0  0  0  0  0  0
  -28.9471    4.1113  -32.5736 C   0  0  0  0  0  0  0  0  0  0  0  0
  -28.5466    1.4615  -33.3572 C   0  0  0  0  0  0  0  0  0  0  0  0
  -28.4389    4.5889  -40.1017 C   0  0  0  0  0  0  0  0  0  0  0  0
  -27.7575    3.5212  -38.0066 C   0  0  0  0  0  0  0  0  0  0  0  0
  -27.6256    3.5787  -32.6372 C   0  0  0  0  0  0  0  0  0  0  0  0
  -27.4681    4.2310  -39.1591 C   0  0  0  0  0  0  0  0  0  0  0  0
  -27.4339    2.2614  -33.0693 C   0  0  0  0  0  0  0  0  0  0  0  0
  -26.6432    3.1608  -37.1270 C   0  0  0  0  0  0  0  0  0  0  0  0
  -26.0737    1.6764  -33.1217 C   0  0  0  0  0  0  0  0  0  0  0  0
  -25.6231    1.1501  -31.9219 C   0  0  0  0  0  0  0  0  0  0  0  0
  -25.2781    3.3798  -37.4523 C   0  0  0  0  0  0  0  0  0  0  0  0
  -25.2053    1.5557  -34.2841 C   0  0  0  0  0  0  0  0  0  0  0  0
  -24.4862    0.3587  -31.8764 C   0  0  0  0  0  0  0  0  0  0  0  0
  -24.5659    2.7276  -36.4416 C   0  0  0  0  0  0  0  0  0  0  0  0
  -24.0839   -0.2096  -30.5874 C   0  0  0  0  0  0  0  0  0  0  0  0
  -24.0713    0.7056  -34.2104 C   0  0  0  0  0  0  0  0  0  0  0  0
  -23.7254    0.1156  -32.9981 C   0  0  0  0  0  0  0  0  0  0  0  0
  -23.0900    2.6775  -36.5579 C   0  0  0  0  0  0  0  0  0  0  0  0
  -22.9601    3.5428  -29.8507 C   0  0  0  0  0  0  0  0  0  0  0  0
  -22.6275    4.3570  -31.1232 C   0  0  0  0  0  0  0  0  0  0  0  0
  -22.2214    3.3853  -32.2424 C   0  0  0  0  0  0  0  0  0  0  0  0
  -22.1630    4.0922  -33.5727 C   0  0  0  0  0  0  0  0  0  0  0  0
  -21.7394    2.3269  -28.0946 C   0  0  0  0  0  0  0  0  0  0  0  0
  -21.7363    3.3482  -34.7649 C   0  0  0  0  0  0  0  0  0  0  0  0
  -21.0368    2.5174  -31.8235 C   0  0  0  0  0  0  0  0  0  0  0  0
  -20.7738    1.2239  -26.1775 C   0  0  0  0  0  0  0  0  0  0  0  0
  -20.9088    2.0955  -30.3828 C   0  0  0  0  0  0  0  0  0  0  0  0
  -20.4094    0.6610  -30.0786 C   0  0  0  0  0  0  0  0  0  0  0  0
  -20.1431   -1.0120  -27.8271 C   0  0  0  0  0  0  0  0  0  0  0  0
  -20.1422    0.0820  -25.5076 C   0  0  0  0  0  0  0  0  0  0  0  0
  -20.1428    0.3979  -28.4935 C   0  0  0  0  0  0  0  0  0  0  0  0
  -19.4324   -0.8957  -26.4387 C   0  0  0  0  0  0  0  0  0  0  0  0
  -23.8532   -1.4497  -30.5362 O   0  0  0  0  0  0  0  0  0  0  0  0
  -23.9170    0.5986  -29.6407 O   0  0  0  0  0  0  0  0  0  0  0  0
  -22.3996    1.8158  -37.0114 O   0  0  0  0  0  0  0  0  0  0  0  0
  -22.2172    3.1109  -27.2529 O   0  0  0  0  0  0  0  0  0  0  0  0
  -22.4403    3.6273  -35.8772 O   0  0  0  0  0  0  0  0  0  0  0  0
  -26.6818    2.5614  -35.9450 N   0  0  0  0  0  0  0  0  0  0  0  0
  -25.4418    2.2932  -35.4782 N   0  0  0  0  0  0  0  0  0  0  0  0
  -21.9153    2.5583  -29.4528 N   0  0  0  0  0  0  0  0  0  0  0  0
  -20.9436    1.2625  -27.6589 N   0  0  0  0  0  0  0  0  0  0  0  0
  -30.8513    4.7115  -40.9911 F   0  0  0  0  0  0  0  0  0  0  0  0
  -28.2870   -0.2142  -33.7676 Cl  0  0  0  0  0  0  0  0  0  0  0  0
  1  3  2  0
  1  6  1  0
  2  4  1  0
  2  5  2  0
  3  7  1  0
  4  8  2  0
  4 47  1  0
  5  9  1  0
  6 10  2  0
  7 12  2  0
  7 48  1  0
  8 11  1  0
  9 11  1  0
  9 13  2  3
 10 12  1  0
 12 14  1  0
 13 16  1  0
 13 43  1  0
 14 15  2  0
 14 17  1  0
 15 18  1  0
 16 19  1  0
 17 21  2  0
 17 44  1  0
 18 20  1  0
 18 22  2  0
 19 23  1  0
 19 44  1  0
 20 38  2  0
 20 39  1  0
 21 22  1  0
 23 40  2  0
 23 42  1  0
 24 25  1  0
 24 45  1  0
 25 26  1  0
 26 27  1  0
 26 30  1  0
 27 29  1  0
 28 41  2  0
 28 45  1  0
 28 46  1  0
 29 42  1  0
 30 32  1  0
 31 35  1  0
 31 46  1  0
 32 33  1  0
 32 45  1  0
 33 36  1  0
 34 36  1  0
 34 37  1  0
 35 37  1  0
 36 46  1  0
 43 44  1  0
M  END
$$$$

     RDKit          3D

 63 67  0  0  0  0  0  0  0  0999 V2000
  -31.6550   -2.0203  -36.9757 C   0  0  0  0  0  0  0  0  0  0  0  0
  -31.6650    0.4111  -36.3792 C   0  0  0  0  0  0  0  0  0  0  0  0
  -31.0584   -3.2424  -37.0901 C   0  0  0  0  0  0  0  0  0  0  0  0
  -31.0976   -0.8611  -36.1781 C   0  0  0  0  0  0  0  0  0  0  0  0
  -31.0753    1.5002  -35.6760 C   0  0  0  0  0  0  0  0  0  0  0  0
  -30.6500   -5.3599  -38.4267 C   0  0  0  0  0  0  0  0  0  0  0  0
  -30.0408   -1.0457  -35.2950 C   0  0  0  0  0  0  0  0  0  0  0  0
  -29.9692    1.3172  -34.8318 C   0  0  0  0  0  0  0  0  0  0  0  0
  -29.4618    0.0416  -34.6457 C   0  0  0  0  0  0  0  0  0  0  0  0
  -29.3702    2.4744  -34.1205 C   0  0  0  0  0  0  0  0  0  0  0  0
  -29.4564    5.1136  -33.7981 C   0  0  0  0  0  0  0  0  0  0  0  0
  -28.8569    7.1822  -34.4206 C   0  0  0  0  0  0  0  0  0  0  0  0
  -28.7168    7.9466  -31.1377 C   0  0  0  0  0  0  0  0  0  0  0  0
  -28.7613    8.5141  -33.6669 C   0  0  0  0  0  0  0  0  0  0  0  0
  -28.3841   -0.9601  -32.6193 C   0  0  0  0  0  0  0  0  0  0  0  0
  -28.2659   -0.2103  -33.7876 C   0  0  0  0  0  0  0  0  0  0  0  0
  -28.4152    4.5286  -34.6286 C   0  0  0  0  0  0  0  0  0  0  0  0
  -28.0613    8.3727  -32.3323 C   0  0  0  0  0  0  0  0  0  0  0  0
  -27.9448    7.7549  -29.9896 C   0  0  0  0  0  0  0  0  0  0  0  0
  -27.5440    6.7310  -35.0669 C   0  0  0  0  0  0  0  0  0  0  0  0
  -27.2957   -1.0676  -31.7530 C   0  0  0  0  0  0  0  0  0  0  0  0
  -27.0177    0.2989  -34.1434 C   0  0  0  0  0  0  0  0  0  0  0  0
  -26.5639    8.0370  -30.0367 C   0  0  0  0  0  0  0  0  0  0  0  0
  -26.6982    8.7286  -32.3544 C   0  0  0  0  0  0  0  0  0  0  0  0
  -26.2152    4.6830  -35.6108 C   0  0  0  0  0  0  0  0  0  0  0  0
  -26.0796   -0.4977  -32.0799 C   0  0  0  0  0  0  0  0  0  0  0  0
  -25.9906    8.6079  -31.1545 C   0  0  0  0  0  0  0  0  0  0  0  0
  -25.9248    0.1889  -33.2856 C   0  0  0  0  0  0  0  0  0  0  0  0
  -25.7699    4.8329  -32.6792 C   0  0  0  0  0  0  0  0  0  0  0  0
  -25.0729    5.7933  -33.5957 C   0  0  0  0  0  0  0  0  0  0  0  0
  -24.8208    4.3659  -31.6011 C   0  0  0  0  0  0  0  0  0  0  0  0
  -24.9291    5.2126  -34.9951 C   0  0  0  0  0  0  0  0  0  0  0  0
  -24.5538    5.4025  -30.5985 C   0  0  0  0  0  0  0  0  0  0  0  0
  -23.2115    6.4016  -28.9836 C   0  0  0  0  0  0  0  0  0  0  0  0
  -22.9996    2.7959  -31.8029 C   0  0  0  0  0  0  0  0  0  0  0  0
  -22.7819    5.4965  -26.7293 C   0  0  0  0  0  0  0  0  0  0  0  0
  -22.6399    5.3433  -28.0855 C   0  0  0  0  0  0  0  0  0  0  0  0
  -22.3583    4.5498  -25.8353 C   0  0  0  0  0  0  0  0  0  0  0  0
  -21.9845    4.2268  -28.5715 C   0  0  0  0  0  0  0  0  0  0  0  0
  -21.7590    0.3057  -31.0381 C   0  0  0  0  0  0  0  0  0  0  0  0
  -21.7371    2.3162  -32.5019 C   0  0  0  0  0  0  0  0  0  0  0  0
  -21.7717    3.3829  -26.3355 C   0  0  0  0  0  0  0  0  0  0  0  0
  -21.5538    3.2372  -27.6784 C   0  0  0  0  0  0  0  0  0  0  0  0
  -21.0896   -2.0596  -30.8255 C   0  0  0  0  0  0  0  0  0  0  0  0
  -21.1143   -0.7802  -30.3001 C   0  0  0  0  0  0  0  0  0  0  0  0
  -20.9585    1.2403  -31.7956 C   0  0  0  0  0  0  0  0  0  0  0  0
  -20.8953    3.3996  -33.1429 C   0  0  0  0  0  0  0  0  0  0  0  0
  -20.4851   -0.4916  -29.0972 C   0  0  0  0  0  0  0  0  0  0  0  0
  -20.3416   -3.0559  -30.1551 C   0  0  0  0  0  0  0  0  0  0  0  0
  -19.7383   -1.4469  -28.4813 C   0  0  0  0  0  0  0  0  0  0  0  0
  -19.6674   -2.7251  -28.9818 C   0  0  0  0  0  0  0  0  0  0  0  0
  -19.6163    1.5981  -31.3414 C   0  0  0  0  0  0  0  0  0  0  0  0
  -17.7993   -1.9938  -26.8297 C   0  0  0  0  0  0  0  0  0  0  0  0
  -30.6903   -3.8077  -36.1114 O   0  0  0  0  0  0  0  0  0  0  0  0
  -28.4511    3.2223  -34.8853 O   0  0  0  0  0  0  0  0  0  0  0  0
  -23.9443    6.5325  -31.2364 O   0  0  0  0  0  0  0  0  0  0  0  0
  -23.6675    2.1088  -31.0145 O   0  0  0  0  0  0  0  0  0  0  0  0
  -31.0690   -3.9082  -38.2469 N   0  0  0  0  0  0  0  0  0  0  0  0
  -27.4514    5.3136  -35.1662 N   0  0  0  0  0  0  0  0  0  0  0  0
  -23.5321    3.9682  -32.1477 N   0  0  0  0  0  0  0  0  0  0  0  0
  -23.6000    6.0008  -30.2034 N   0  0  0  0  0  0  0  0  0  0  0  0
  -18.7301   -0.9917  -26.9896 S   0  0  0  0  0  0  0  0  0  0  0  0
  -20.3617   -4.6218  -30.7202 Cl  0  0  0  0  0  0  0  0  0  0  0  0
  1  3  1  0
  1  4  2  3
  2  4  1  0
  2  5  2  0
  3 54  2  0
  3 58  1  0
  4  7  1  0
  5  8  1  0
  6 58  1  0
  7  9  1  0
  8  9  2  0
  8 10  1  0
  9 16  1  0
 10 55  1  0
 11 17  1  0
 12 14  1  0
 12 20  1  0
 13 18  2  0
 13 19  1  0
 14 18  1  0
 15 16  2  0
 15 21  1  0
 16 22  1  0
 17 55  1  0
 17 59  1  0
 18 24  1  0
 19 23  2  0
 20 59  1  0
 21 26  2  0
 22 28  2  0
 23 27  1  0
 24 27  2  0
 25 32  1  0
 25 59  1  0
 26 28  1  0
 29 30  1  0
 29 31  1  0
 30 32  1  0
 31 33  1  0
 31 60  1  0
 33 61  1  0
 34 37  1  0
 34 61  1  0
 35 41  1  0
 35 57  2  0
 35 60  1  0
 36 37  2  0
 36 38  1  0
 37 39  1  0
 38 42  2  0
 39 43  2  0
 40 45  1  0
 40 46  1  0
 41 46  1  0
 41 47  1  0
 42 43  1  0
 44 45  2  0
 44 49  1  0
 45 48  1  0
 46 52  1  0
 48 50  2  0
 49 51  2  0
 49 63  1  0
 50 51  1  0
 50 62  1  0
 53 62  1  0
 56 61  1  0
M  END
$$$$

     RDKit          3D

 30 33  0  0  0  0  0  0  0  0999 V2000
  -28.3361   -0.8134  -32.8821 C   0  0  0  0  0  0  0  0  0  0  0  0
  -27.1221   -0.0717  -33.2851 C   0  0  0  0  0  0  0  0  0  0  0  0
  -27.0820    1.2690  -33.0858 C   0  0  0  0  0  0  0  0  0  0  0  0
  -26.0162   -0.7024  -33.8672 C   0  0  0  0  0  0  0  0  0  0  0  0
  -25.9922    2.0371  -33.4513 C   0  0  0  0  0  0  0  0  0  0  0  0
  -24.8819    0.0195  -34.2100 C   0  0  0  0  0  0  0  0  0  0  0  0
  -24.8538    1.4268  -33.9806 C   0  0  0  0  0  0  0  0  0  0  0  0
  -24.1419    4.1081  -33.3185 C   0  0  0  0  0  0  0  0  0  0  0  0
  -23.7419    4.0228  -31.9573 C   0  0  0  0  0  0  0  0  0  0  0  0
  -23.5928    2.1553  -34.3512 C   0  0  0  0  0  0  0  0  0  0  0  0
  -23.6436    3.5924  -34.1947 C   0  0  0  0  0  0  0  0  0  0  0  0
  -23.6619    5.2705  -29.9893 C   0  0  0  0  0  0  0  0  0  0  0  0
  -23.3872    2.8995  -31.2756 C   0  0  0  0  0  0  0  0  0  0  0  0
  -23.2558    4.1593  -29.2763 C   0  0  0  0  0  0  0  0  0  0  0  0
  -23.1446    2.9526  -29.9319 C   0  0  0  0  0  0  0  0  0  0  0  0
  -22.7984    1.8312  -29.1383 C   0  0  0  0  0  0  0  0  0  0  0  0
  -22.2745   -2.0133  -30.8843 C   0  0  0  0  0  0  0  0  0  0  0  0
  -21.4999    0.2843  -30.4021 C   0  0  0  0  0  0  0  0  0  0  0  0
  -21.2814   -1.1921  -30.0810 C   0  0  0  0  0  0  0  0  0  0  0  0
  -20.5603    1.1756  -29.5499 C   0  0  0  0  0  0  0  0  0  0  0  0
  -19.8312   -1.5282  -30.4273 C   0  0  0  0  0  0  0  0  0  0  0  0
  -19.1200    0.7807  -29.8133 C   0  0  0  0  0  0  0  0  0  0  0  0
  -18.9287   -0.6879  -29.5378 C   0  0  0  0  0  0  0  0  0  0  0  0
  -28.3023   -1.8803  -32.3688 O   0  0  0  0  0  0  0  0  0  0  0  0
  -22.8281    0.5745  -29.9822 O   0  0  0  0  0  0  0  0  0  0  0  0
  -22.7623    4.3980  -34.1886 O   0  0  0  0  0  0  0  0  0  0  0  0
  -29.5463   -0.1649  -33.2170 N   0  0  0  0  0  0  0  0  0  0  0  0
  -26.0234    3.5191  -33.3893 N   0  0  0  0  0  0  0  0  0  0  0  0
  -25.1648    4.2655  -34.0138 N   0  0  0  0  0  0  0  0  0  0  0  0
  -23.9164    5.1534  -31.2805 N   0  0  0  0  0  0  0  0  0  0  0  0
  1  2  1  0
  1 24  2  0
  1 27  1  0
  2  3  2  0
  2  4  1  0
  3  5  1  0
  4  6  2  0
  5  7  2  0
  5 28  1  0
  6  7  1  0
  7 10  1  0
  8  9  1  0
  8 11  1  0
  8 29  1  0
  9 13  1  0
  9 30  2  0
 10 11  1  0
 11 26  1  0
 12 14  2  0
 12 30  1  0
 13 15  2  0
 14 15  1  0
 15 16  1  0
 16 25  1  0
 17 19  1  0
 18 19  1  0
 18 20  1  0
 18 25  1  0
 19 21  1  0
 20 22  1  0
 21 23  1  0
 22 23  1  0
 28 29  1  0
M  END
$$$$

     RDKit          3D

 63 64  0  0  0  0  0  0  0  0999 V2000
  -32.1479    0.8913  -35.2644 C   0  0  0  0  0  0  0  0  0  0  0  0
  -31.5466    0.2361  -33.7743 C   0  0  0  0  0  0  0  0  0  0  0  0
  -31.5369    3.0221  -36.5379 C   0  0  0  0  0  0  0  0  0  0  0  0
  -30.8449    4.3825  -33.0432 C   0  0  0  0  0  0  0  0  0  0  0  0
  -30.1680    1.8807  -34.8223 C   0  0  0  0  0  0  0  0  0  0  0  0
  -30.0371    4.4673  -34.3475 C   0  0  0  0  0  0  0  0  0  0  0  0
  -30.1734    7.4674  -33.4460 C   0  0  0  0  0  0  0  0  0  0  0  0
  -29.5787    8.3648  -32.3908 C   0  0  0  0  0  0  0  0  0  0  0  0
  -29.2870    3.1368  -34.6136 C   0  0  0  0  0  0  0  0  0  0  0  0
  -28.9999    5.5250  -34.2251 C   0  0  0  0  0  0  0  0  0  0  0  0
  -29.1933    6.9516  -34.5303 C   0  0  0  0  0  0  0  0  0  0  0  0
  -28.3195    3.3459  -35.7813 C   0  0  0  0  0  0  0  0  0  0  0  0
  -27.8435    7.6599  -34.6215 C   0  0  0  0  0  0  0  0  0  0  0  0
  -26.5407    1.0441  -34.0440 C   0  0  0  0  0  0  0  0  0  0  0  0
  -26.2263    7.5204  -30.9790 C   0  0  0  0  0  0  0  0  0  0  0  0
  -26.0583   -1.2694  -31.9479 C   0  0  0  0  0  0  0  0  0  0  0  0
  -25.5174    7.5811  -33.9212 C   0  0  0  0  0  0  0  0  0  0  0  0
  -25.4739    9.1189  -34.1875 C   0  0  0  0  0  0  0  0  0  0  0  0
  -25.2185    0.3064  -34.2561 C   0  0  0  0  0  0  0  0  0  0  0  0
  -24.9920   -0.2284  -31.7171 C   0  0  0  0  0  0  0  0  0  0  0  0
  -24.9508    7.9641  -31.5200 C   0  0  0  0  0  0  0  0  0  0  0  0
  -24.5065    7.2506  -32.8144 C   0  0  0  0  0  0  0  0  0  0  0  0
  -24.3871    0.2268  -33.0201 C   0  0  0  0  0  0  0  0  0  0  0  0
  -24.2178    0.7127  -35.3393 C   0  0  0  0  0  0  0  0  0  0  0  0
  -23.9282   -0.8955  -30.8909 C   0  0  0  0  0  0  0  0  0  0  0  0
  -23.7943    4.7969  -30.5033 C   0  0  0  0  0  0  0  0  0  0  0  0
  -23.2475    3.4331  -30.2298 C   0  0  0  0  0  0  0  0  0  0  0  0
  -23.3810    3.7311  -33.8491 C   0  0  0  0  0  0  0  0  0  0  0  0
  -23.2283    5.2497  -31.8568 C   0  0  0  0  0  0  0  0  0  0  0  0
  -22.5666   -0.2335  -30.7105 C   0  0  0  0  0  0  0  0  0  0  0  0
  -22.6746    3.9808  -32.5085 C   0  0  0  0  0  0  0  0  0  0  0  0
  -21.7167   -1.2842  -29.9967 C   0  0  0  0  0  0  0  0  0  0  0  0
  -21.2019    4.1179  -32.8241 C   0  0  0  0  0  0  0  0  0  0  0  0
  -20.5510    0.0044  -25.6793 C   0  0  0  0  0  0  0  0  0  0  0  0
  -20.2404    0.0970  -28.6780 C   0  0  0  0  0  0  0  0  0  0  0  0
  -20.0264   -4.1866  -30.3511 C   0  0  0  0  0  0  0  0  0  0  0  0
  -19.9938    1.5529  -29.1479 C   0  0  0  0  0  0  0  0  0  0  0  0
  -19.8291   -5.4299  -31.1900 C   0  0  0  0  0  0  0  0  0  0  0  0
  -19.3109   -1.8560  -29.6533 C   0  0  0  0  0  0  0  0  0  0  0  0
  -19.2560   -0.6153  -27.6822 C   0  0  0  0  0  0  0  0  0  0  0  0
  -19.3371    3.5676  -30.4013 C   0  0  0  0  0  0  0  0  0  0  0  0
  -19.1764   -2.9655  -30.6297 C   0  0  0  0  0  0  0  0  0  0  0  0
  -19.0468   -2.0396  -28.2261 C   0  0  0  0  0  0  0  0  0  0  0  0
  -19.1849    2.1008  -30.2842 C   0  0  0  0  0  0  0  0  0  0  0  0
  -18.7695   -1.6079  -25.5489 C   0  0  0  0  0  0  0  0  0  0  0  0
  -31.4101    2.1628  -35.4448 O   0  0  0  0  0  0  0  0  0  0  0  0
  -30.4549    1.1732  -33.5834 O   0  0  0  0  0  0  0  0  0  0  0  0
  -28.3880    4.0376  -36.8459 O   0  0  0  0  0  0  0  0  0  0  0  0
  -27.6740    0.4623  -34.2872 O   0  0  0  0  0  0  0  0  0  0  0  0
  -26.8672    7.1817  -33.6644 O   0  0  0  0  0  0  0  0  0  0  0  0
  -26.6469    2.0255  -33.2892 O   0  0  0  0  0  0  0  0  0  0  0  0
  -26.0913    9.9253  -33.2601 O   0  0  0  0  0  0  0  0  0  0  0  0
  -25.5019    0.9067  -31.0192 O   0  0  0  0  0  0  0  0  0  0  0  0
  -24.3303    5.8349  -32.6354 O   0  0  0  0  0  0  0  0  0  0  0  0
  -22.8523    2.9065  -31.5587 O   0  0  0  0  0  0  0  0  0  0  0  0
  -22.3004   -1.6207  -28.8236 O   0  0  0  0  0  0  0  0  0  0  0  0
  -22.0322    0.2426  -31.8798 O   0  0  0  0  0  0  0  0  0  0  0  0
  -21.1599   -4.0530  -29.7517 O   0  0  0  0  0  0  0  0  0  0  0  0
  -20.4810    3.8013  -31.2338 O   0  0  0  0  0  0  0  0  0  0  0  0
  -19.4990   -2.5086  -25.1553 O   0  0  0  0  0  0  0  0  0  0  0  0
  -17.4627   -1.8094  -25.8491 O   0  0  0  0  0  0  0  0  0  0  0  0
  -20.3299   -0.8251  -29.8494 N   0  0  0  0  0  0  0  0  0  0  0  0
  -19.4707   -0.6535  -26.2733 N   0  0  0  0  0  0  0  0  0  0  0  0
  1  2  1  0
  2 47  1  0
  3 46  1  0
  4  6  1  0
  5  9  1  0
  5 46  1  0
  5 47  1  0
  6  9  1  0
  6 10  1  0
  7  8  1  0
  7 11  1  0
  9 12  1  0
 10 11  1  0
 11 13  1  0
 12 48  2  0
 13 50  1  0
 14 19  1  0
 14 49  2  0
 14 51  1  0
 15 21  1  0
 16 20  1  0
 17 18  1  0
 17 22  1  0
 17 50  1  0
 18 52  1  0
 19 23  1  0
 19 24  1  0
 20 23  1  0
 20 25  1  0
 20 53  1  0
 21 22  1  0
 22 54  1  0
 25 30  1  0
 26 27  1  0
 26 29  1  0
 27 55  1  0
 28 31  1  0
 29 31  1  0
 29 54  1  0
 30 32  1  0
 30 57  1  0
 31 33  1  0
 31 55  1  0
 32 56  1  0
 32 62  1  0
 33 59  1  0
 34 63  1  0
 35 37  1  0
 35 40  1  0
 35 62  1  0
 36 38  1  0
 36 42  1  0
 36 58  1  0
 37 44  1  0
 39 42  1  0
 39 43  1  0
 39 62  1  0
 40 43  1  0
 40 63  1  0
 41 44  1  0
 41 59  1  0
 45 60  2  0
 45 61  1  0
 45 63  1  0
M  END
$$$$

     RDKit          3D

 38 43  0  0  0  0  0  0  0  0999 V2000
  -32.0226    4.0731  -33.3835 C   0  0  0  0  0  0  0  0  0  0  0  0
  -32.0547    5.5119  -32.9018 C   0  0  0  0  0  0  0  0  0  0  0  0
  -30.5462    2.2959  -33.8610 C   0  0  0  0  0  0  0  0  0  0  0  0
  -30.5892    5.8064  -32.4039 C   0  0  0  0  0  0  0  0  0  0  0  0
  -29.8320    4.4299  -32.5869 C   0  0  0  0  0  0  0  0  0  0  0  0
  -29.2880    1.5928  -33.4974 C   0  0  0  0  0  0  0  0  0  0  0  0
  -27.9522    2.1334  -33.6219 C   0  0  0  0  0  0  0  0  0  0  0  0
  -26.9103    1.2099  -33.2083 C   0  0  0  0  0  0  0  0  0  0  0  0
  -25.4627    3.0652  -32.5885 C   0  0  0  0  0  0  0  0  0  0  0  0
  -24.9441   -0.5697  -31.9613 C   0  0  0  0  0  0  0  0  0  0  0  0
  -24.7186    0.7947  -32.0984 C   0  0  0  0  0  0  0  0  0  0  0  0
  -24.3775    3.5270  -31.8205 C   0  0  0  0  0  0  0  0  0  0  0  0
  -23.9084   -1.4402  -31.5870 C   0  0  0  0  0  0  0  0  0  0  0  0
  -23.4585    1.2736  -31.7521 C   0  0  0  0  0  0  0  0  0  0  0  0
  -23.2821    2.6494  -31.6353 C   0  0  0  0  0  0  0  0  0  0  0  0
  -22.6423   -0.9825  -31.3211 C   0  0  0  0  0  0  0  0  0  0  0  0
  -22.5172    4.4121  -29.2316 C   0  0  0  0  0  0  0  0  0  0  0  0
  -22.5288    4.5360  -27.8766 C   0  0  0  0  0  0  0  0  0  0  0  0
  -22.4215    0.3879  -31.3876 C   0  0  0  0  0  0  0  0  0  0  0  0
  -22.0313    3.2279  -29.7974 C   0  0  0  0  0  0  0  0  0  0  0  0
  -21.9962    3.6010  -27.0374 C   0  0  0  0  0  0  0  0  0  0  0  0
  -21.5718    2.2064  -28.9670 C   0  0  0  0  0  0  0  0  0  0  0  0
  -21.5873    2.3801  -27.5834 C   0  0  0  0  0  0  0  0  0  0  0  0
  -21.3092   -3.1092  -30.9414 C   0  0  0  0  0  0  0  0  0  0  0  0
  -21.4505   -1.7249  -31.0615 C   0  0  0  0  0  0  0  0  0  0  0  0
  -21.2244    3.3268  -33.5050 C   0  0  0  0  0  0  0  0  0  0  0  0
  -20.9931    3.4634  -32.0658 C   0  0  0  0  0  0  0  0  0  0  0  0
  -20.3891   -0.8555  -30.9156 C   0  0  0  0  0  0  0  0  0  0  0  0
  -20.0005   -3.5612  -30.6009 C   0  0  0  0  0  0  0  0  0  0  0  0
  -19.0876   -1.3234  -30.6026 C   0  0  0  0  0  0  0  0  0  0  0  0
  -18.9419   -2.7033  -30.3985 C   0  0  0  0  0  0  0  0  0  0  0  0
  -27.1379   -0.0197  -33.3437 O   0  0  0  0  0  0  0  0  0  0  0  0
  -20.0025    3.9413  -31.6230 O   0  0  0  0  0  0  0  0  0  0  0  0
  -30.6483    3.6749  -33.5246 N   0  0  0  0  0  0  0  0  0  0  0  0
  -25.7116    1.6977  -32.6104 N   0  0  0  0  0  0  0  0  0  0  0  0
  -22.0634    3.1037  -31.2037 N   0  0  0  0  0  0  0  0  0  0  0  0
  -20.7480    0.5665  -31.0827 S   0  0  0  0  0  0  0  0  0  0  0  0
  -21.7176    3.9270  -25.3538 Cl  0  0  0  0  0  0  0  0  0  0  0  0
  1  2  1  0
  1 34  1  0
  2  4  1  0
  3  6  1  0
  3 34  1  0
  4  5  1  0
  5 34  1  0
  6  7  1  0
  7  8  1  0
  8 32  2  0
  8 35  1  0
  9 12  1  0
  9 35  1  0
 10 11  2  0
 10 13  1  0
 11 14  1  0
 11 35  1  0
 12 15  1  0
 13 16  2  0
 14 15  2  0
 14 19  1  0
 15 36  1  0
 16 19  1  0
 16 25  1  0
 17 18  2  0
 17 20  1  0
 18 21  1  0
 19 37  1  0
 20 22  2  0
 20 36  1  0
 21 23  2  0
 21 38  1  0
 22 23  1  0
 24 25  1  0
 24 29  1  0
 25 28  2  0
 26 27  1  0
 27 33  2  0
 27 36  1  0
 28 30  1  0
 28 37  1  0
 29 31  2  0
 30 31  1  0
M  END
$$$$

     RDKit          3D

 35 39  0  0  0  0  0  0  0  0999 V2000
  -31.7606   -0.6080  -36.3108 C   0  0  0  0  0  0  0  0  0  0  0  0
  -31.5214    1.6615  -36.5555 C   0  0  0  0  0  0  0  0  0  0  0  0
  -30.6610   -0.2244  -35.3168 C   0  0  0  0  0  0  0  0  0  0  0  0
  -30.6818    1.2151  -35.4642 C   0  0  0  0  0  0  0  0  0  0  0  0
  -29.7705    2.1016  -34.6706 C   0  0  0  0  0  0  0  0  0  0  0  0
  -28.3608    2.0446  -35.1305 C   0  0  0  0  0  0  0  0  0  0  0  0
  -26.0777    1.6889  -34.2995 C   0  0  0  0  0  0  0  0  0  0  0  0
  -25.2924    1.3379  -33.1913 C   0  0  0  0  0  0  0  0  0  0  0  0
  -25.4309    2.0589  -35.5199 C   0  0  0  0  0  0  0  0  0  0  0  0
  -24.0138    2.0242  -35.5767 C   0  0  0  0  0  0  0  0  0  0  0  0
  -23.9032    1.3894  -33.2387 C   0  0  0  0  0  0  0  0  0  0  0  0
  -23.2523    1.7018  -34.4448 C   0  0  0  0  0  0  0  0  0  0  0  0
  -23.1386    1.0973  -32.0723 C   0  0  0  0  0  0  0  0  0  0  0  0
  -23.0601    3.6089  -37.0735 C   0  0  0  0  0  0  0  0  0  0  0  0
  -22.6226   -0.1844  -31.9026 C   0  0  0  0  0  0  0  0  0  0  0  0
  -22.4638    1.7016  -29.8962 C   0  0  0  0  0  0  0  0  0  0  0  0
  -22.3462    2.6531  -28.8747 C   0  0  0  0  0  0  0  0  0  0  0  0
  -21.9450   -0.5135  -30.7686 C   0  0  0  0  0  0  0  0  0  0  0  0
  -21.8989    0.4173  -29.6833 C   0  0  0  0  0  0  0  0  0  0  0  0
  -21.7437    2.3539  -27.6786 C   0  0  0  0  0  0  0  0  0  0  0  0
  -21.7294    3.4432  -26.6409 C   0  0  0  0  0  0  0  0  0  0  0  0
  -21.6909    4.0215  -36.5113 C   0  0  0  0  0  0  0  0  0  0  0  0
  -21.2598   -1.8253  -30.7101 C   0  0  0  0  0  0  0  0  0  0  0  0
  -21.3053    0.0948  -28.4609 C   0  0  0  0  0  0  0  0  0  0  0  0
  -21.2306    1.0309  -27.4444 C   0  0  0  0  0  0  0  0  0  0  0  0
  -20.6901    0.6745  -26.1152 C   0  0  0  0  0  0  0  0  0  0  0  0
  -20.5370    3.2601  -25.6971 C   0  0  0  0  0  0  0  0  0  0  0  0
  -20.3453    1.8353  -25.2087 C   0  0  0  0  0  0  0  0  0  0  0  0
  -31.8146   -1.7184  -36.8357 O   0  0  0  0  0  0  0  0  0  0  0  0
  -28.0081    1.3168  -32.9893 O   0  0  0  0  0  0  0  0  0  0  0  0
  -23.4186    2.2912  -36.7584 O   0  0  0  0  0  0  0  0  0  0  0  0
  -20.8325    3.5458  -37.4013 O   0  0  0  0  0  0  0  0  0  0  0  0
  -32.3685    0.4951  -36.8275 N   0  0  0  0  0  0  0  0  0  0  0  0
  -27.4862    1.6792  -34.1402 N   0  0  0  0  0  0  0  0  0  0  0  0
  -23.0847    2.0161  -31.0759 N   0  0  0  0  0  0  0  0  0  0  0  0
  1  3  1  0
  1 29  2  0
  1 33  1  0
  2  4  1  0
  2 33  1  0
  3  4  1  0
  4  5  1  0
  5  6  1  0
  6 34  1  0
  7  8  2  0
  7  9  1  0
  7 34  1  0
  8 11  1  0
  9 10  2  0
 10 12  1  0
 10 31  1  0
 11 12  2  0
 11 13  1  0
 13 15  2  0
 13 35  1  0
 14 22  1  0
 14 31  1  0
 15 18  1  0
 16 17  1  0
 16 19  1  0
 16 35  2  0
 17 20  2  0
 18 19  2  0
 18 23  1  0
 19 24  1  0
 20 21  1  0
 20 25  1  0
 21 27  1  0
 22 32  1  0
 24 25  2  0
 25 26  1  0
 26 28  2  0
 27 28  1  0
 30 34  1  0
M  END
$$$$

     RDKit          3D

 53 57  0  0  0  0  0  0  0  0999 V2000
  -30.9468    0.2612  -36.0197 C   0  0  0  0  0  0  0  0  0  0  0  0
  -30.0708   -0.5230  -35.2328 C   0  0  0  0  0  0  0  0  0  0  0  0
  -29.6056    1.6765  -35.0157 C   0  0  0  0  0  0  0  0  0  0  0  0
  -28.9627    2.8397  -34.3614 C   0  0  0  0  0  0  0  0  0  0  0  0
  -29.0412    2.9459  -32.9691 C   0  0  0  0  0  0  0  0  0  0  0  0
  -28.4691   -0.8271  -32.7456 C   0  0  0  0  0  0  0  0  0  0  0  0
  -28.4886    4.0128  -32.3308 C   0  0  0  0  0  0  0  0  0  0  0  0
  -28.2228    3.8017  -35.0829 C   0  0  0  0  0  0  0  0  0  0  0  0
  -28.1969    0.0266  -33.7862 C   0  0  0  0  0  0  0  0  0  0  0  0
  -27.7236    4.9248  -34.3982 C   0  0  0  0  0  0  0  0  0  0  0  0
  -27.9270    5.0694  -33.0116 C   0  0  0  0  0  0  0  0  0  0  0  0
  -27.5094   -1.1506  -31.8362 C   0  0  0  0  0  0  0  0  0  0  0  0
  -27.6614    6.2557  -32.0830 C   0  0  0  0  0  0  0  0  0  0  0  0
  -26.9202    0.4971  -33.9907 C   0  0  0  0  0  0  0  0  0  0  0  0
  -26.6457    5.8037  -30.9754 C   0  0  0  0  0  0  0  0  0  0  0  0
  -26.4695    6.5550  -29.7003 C   0  0  0  0  0  0  0  0  0  0  0  0
  -26.2497   -0.5659  -31.9268 C   0  0  0  0  0  0  0  0  0  0  0  0
  -25.9336    0.2145  -33.0466 C   0  0  0  0  0  0  0  0  0  0  0  0
  -24.2554    0.0563  -30.8419 C   0  0  0  0  0  0  0  0  0  0  0  0
  -24.3411    6.8852  -35.1446 C   0  0  0  0  0  0  0  0  0  0  0  0
  -23.7178    3.0636  -36.5184 C   0  0  0  0  0  0  0  0  0  0  0  0
  -23.3125    6.5596  -34.0611 C   0  0  0  0  0  0  0  0  0  0  0  0
  -22.9861   -0.6787  -30.8534 C   0  0  0  0  0  0  0  0  0  0  0  0
  -22.9621    6.9594  -31.8497 C   0  0  0  0  0  0  0  0  0  0  0  0
  -22.9404    5.0372  -34.1759 C   0  0  0  0  0  0  0  0  0  0  0  0
  -22.3572    3.3732  -35.9437 C   0  0  0  0  0  0  0  0  0  0  0  0
  -22.1919    4.6510  -32.9015 C   0  0  0  0  0  0  0  0  0  0  0  0
  -22.1540    4.7749  -35.4690 C   0  0  0  0  0  0  0  0  0  0  0  0
  -22.0921    7.4483  -34.3078 C   0  0  0  0  0  0  0  0  0  0  0  0
  -21.7905    0.1475  -31.1469 C   0  0  0  0  0  0  0  0  0  0  0  0
  -21.9596    1.1666  -32.1006 C   0  0  0  0  0  0  0  0  0  0  0  0
  -21.2859    2.8832  -36.8989 C   0  0  0  0  0  0  0  0  0  0  0  0
  -21.1732    3.1815  -33.2768 C   0  0  0  0  0  0  0  0  0  0  0  0
  -20.8030    0.6973  -27.6808 C   0  0  0  0  0  0  0  0  0  0  0  0
  -20.8983    1.9923  -32.3876 C   0  0  0  0  0  0  0  0  0  0  0  0
  -20.5489   -0.0105  -30.4947 C   0  0  0  0  0  0  0  0  0  0  0  0
  -20.5964    1.0678  -26.3362 C   0  0  0  0  0  0  0  0  0  0  0  0
  -20.1959   -0.5152  -28.1475 C   0  0  0  0  0  0  0  0  0  0  0  0
  -19.7997    0.2761  -25.4365 C   0  0  0  0  0  0  0  0  0  0  0  0
  -19.4942    0.8962  -30.8247 C   0  0  0  0  0  0  0  0  0  0  0  0
  -19.6999    1.8761  -31.7493 C   0  0  0  0  0  0  0  0  0  0  0  0
  -19.4376   -1.2979  -27.2559 C   0  0  0  0  0  0  0  0  0  0  0  0
  -19.2444   -0.9134  -25.9306 C   0  0  0  0  0  0  0  0  0  0  0  0
  -18.4315   -1.7360  -24.9795 C   0  0  0  0  0  0  0  0  0  0  0  0
  -26.0775    4.7551  -30.3949 O   0  0  0  0  0  0  0  0  0  0  0  0
  -25.3838   -0.7265  -30.9018 O   0  0  0  0  0  0  0  0  0  0  0  0
  -23.8944    6.8549  -32.8587 O   0  0  0  0  0  0  0  0  0  0  0  0
  -22.9582    4.6617  -31.7967 O   0  0  0  0  0  0  0  0  0  0  0  0
  -22.8761   -1.9020  -30.4045 O   0  0  0  0  0  0  0  0  0  0  0  0
  -20.3423   -0.9201  -29.4881 O   0  0  0  0  0  0  0  0  0  0  0  0
  -30.5952    1.5999  -35.8670 N   0  0  0  0  0  0  0  0  0  0  0  0
  -29.2344    0.3916  -34.6373 N   0  0  0  0  0  0  0  0  0  0  0  0
  -21.4074    2.4777  -25.6478 Cl  0  0  0  0  0  0  0  0  0  0  0  0
  1  2  1  0
  1 51  1  0
  2 52  1  0
  3  4  1  0
  3 51  2  0
  3 52  1  0
  4  5  2  0
  4  8  1  0
  5  7  1  0
  6  9  2  0
  6 12  1  0
  7 11  2  0
  8 10  2  0
  9 14  1  0
  9 52  1  0
 10 11  1  0
 11 13  1  0
 12 17  2  0
 13 15  1  0
 14 18  2  0
 15 16  1  0
 15 45  1  0
 17 18  1  0
 17 46  1  0
 19 23  1  0
 19 46  1  0
 20 22  1  0
 21 26  1  0
 22 25  1  0
 22 29  1  0
 22 47  1  0
 23 30  1  0
 23 49  1  0
 24 47  1  0
 25 27  1  0
 25 28  1  0
 26 28  1  0
 26 32  1  0
 27 33  1  0
 27 48  1  0
 30 31  2  0
 30 36  1  0
 31 35  1  0
 33 35  1  0
 34 37  2  0
 34 38  1  0
 35 41  2  0
 36 40  2  0
 36 50  1  0
 37 39  1  0
 37 53  1  0
 38 42  2  0
 38 50  1  0
 39 43  2  0
 40 41  1  0
 42 43  1  0
 43 44  1  0
M  END
$$$$

     RDKit          3D

 38 43  0  0  0  0  0  0  0  0999 V2000
  -30.2116   -0.6702  -35.4174 C   0  0  0  0  0  0  0  0  0  0  0  0
  -30.4388    1.2195  -36.9402 C   0  0  0  0  0  0  0  0  0  0  0  0
  -30.0555    2.4881  -37.3606 C   0  0  0  0  0  0  0  0  0  0  0  0
  -29.8506    0.6164  -35.8140 C   0  0  0  0  0  0  0  0  0  0  0  0
  -29.5551   -1.2693  -34.3586 C   0  0  0  0  0  0  0  0  0  0  0  0
  -29.0807    3.1755  -36.6570 C   0  0  0  0  0  0  0  0  0  0  0  0
  -29.0059    4.3354  -33.1767 C   0  0  0  0  0  0  0  0  0  0  0  0
  -28.8075    1.2941  -35.1348 C   0  0  0  0  0  0  0  0  0  0  0  0
  -28.8936    5.1591  -32.0474 C   0  0  0  0  0  0  0  0  0  0  0  0
  -28.4759   -0.6645  -33.7385 C   0  0  0  0  0  0  0  0  0  0  0  0
  -28.4638    2.6005  -35.5429 C   0  0  0  0  0  0  0  0  0  0  0  0
  -28.1376    0.6166  -34.0895 C   0  0  0  0  0  0  0  0  0  0  0  0
  -27.7215    4.0266  -33.7422 C   0  0  0  0  0  0  0  0  0  0  0  0
  -26.7169    4.6273  -32.9972 C   0  0  0  0  0  0  0  0  0  0  0  0
  -26.1231    3.0622  -35.2227 C   0  0  0  0  0  0  0  0  0  0  0  0
  -25.4097    4.4114  -33.2958 C   0  0  0  0  0  0  0  0  0  0  0  0
  -25.0936    3.6260  -34.4034 C   0  0  0  0  0  0  0  0  0  0  0  0
  -23.8009    4.6231  -31.4253 C   0  0  0  0  0  0  0  0  0  0  0  0
  -22.2898    4.7627  -31.4940 C   0  0  0  0  0  0  0  0  0  0  0  0
  -21.7136    4.6193  -32.9058 C   0  0  0  0  0  0  0  0  0  0  0  0
  -21.6720    0.3262  -31.7129 C   0  0  0  0  0  0  0  0  0  0  0  0
  -21.6359    3.7107  -30.6334 C   0  0  0  0  0  0  0  0  0  0  0  0
  -21.3732   -1.0370  -31.0984 C   0  0  0  0  0  0  0  0  0  0  0  0
  -20.9996    3.2978  -32.8591 C   0  0  0  0  0  0  0  0  0  0  0  0
  -20.7810    1.4261  -31.0616 C   0  0  0  0  0  0  0  0  0  0  0  0
  -20.5558   -3.7647  -30.7874 C   0  0  0  0  0  0  0  0  0  0  0  0
  -19.9269   -5.1772  -30.4580 C   0  0  0  0  0  0  0  0  0  0  0  0
  -19.6293   -2.6078  -30.5263 C   0  0  0  0  0  0  0  0  0  0  0  0
  -19.3329    1.0597  -31.2880 C   0  0  0  0  0  0  0  0  0  0  0  0
  -18.9294   -0.3364  -30.8987 C   0  0  0  0  0  0  0  0  0  0  0  0
  -20.3108    2.9118  -33.7849 O   0  0  0  0  0  0  0  0  0  0  0  0
  -18.5740   -2.8411  -29.9652 O   0  0  0  0  0  0  0  0  0  0  0  0
  -27.4555    3.2450  -34.8439 N   0  0  0  0  0  0  0  0  0  0  0  0
  -24.4527    5.0207  -32.5537 N   0  0  0  0  0  0  0  0  0  0  0  0
  -21.1113    2.7499  -31.5819 N   0  0  0  0  0  0  0  0  0  0  0  0
  -19.9586   -1.3347  -30.8768 N   0  0  0  0  0  0  0  0  0  0  0  0
  -28.7048    4.7821  -37.1919 S   0  0  0  0  0  0  0  0  0  0  0  0
  -27.2926    5.5336  -31.6813 S   0  0  0  0  0  0  0  0  0  0  0  0
  1  4  2  0
  1  5  1  0
  2  3  2  0
  2  4  1  0
  3  6  1  0
  4  8  1  0
  5 10  2  0
  6 11  2  0
  6 37  1  0
  7  9  1  0
  7 13  1  0
  8 11  1  0
  8 12  2  0
  9 38  1  0
 10 12  1  0
 11 33  1  0
 13 14  1  0
 13 33  1  0
 14 16  2  0
 14 38  1  0
 15 17  2  0
 15 33  1  0
 16 17  1  0
 16 34  1  0
 18 19  1  0
 18 34  1  0
 19 20  1  0
 19 22  1  0
 20 24  1  0
 21 23  1  0
 21 25  1  0
 22 35  1  0
 23 36  1  0
 24 31  2  0
 24 35  1  0
 25 29  1  0
 25 35  1  0
 26 27  1  0
 26 28  1  0
 28 32  2  0
 28 36  1  0
 29 30  1  0
 30 36  1  0
M  END
$$$$

     RDKit          3D

 54 62  0  0  0  0  0  0  0  0999 V2000
  -32.1873    0.3324  -36.0266 C   0  0  0  0  0  0  0  0  0  0  0  0
  -31.7185    1.2504  -35.1569 C   0  0  0  0  0  0  0  0  0  0  0  0
  -31.5531   -0.8891  -36.1057 C   0  0  0  0  0  0  0  0  0  0  0  0
  -31.4056   -3.0051  -37.0065 C   0  0  0  0  0  0  0  0  0  0  0  0
  -30.5990    1.0265  -34.3616 C   0  0  0  0  0  0  0  0  0  0  0  0
  -30.4049   -3.3274  -36.0982 C   0  0  0  0  0  0  0  0  0  0  0  0
  -30.4443   -1.1675  -35.2840 C   0  0  0  0  0  0  0  0  0  0  0  0
  -29.9063   -0.1634  -34.4512 C   0  0  0  0  0  0  0  0  0  0  0  0
  -29.0432    7.2037  -33.0393 C   0  0  0  0  0  0  0  0  0  0  0  0
  -28.8629    7.5307  -30.6234 C   0  0  0  0  0  0  0  0  0  0  0  0
  -28.5775   -0.2984  -33.8012 C   0  0  0  0  0  0  0  0  0  0  0  0
  -28.3507   -1.0901  -32.6621 C   0  0  0  0  0  0  0  0  0  0  0  0
  -28.0753    7.2281  -29.3611 C   0  0  0  0  0  0  0  0  0  0  0  0
  -27.5140    0.5059  -34.2866 C   0  0  0  0  0  0  0  0  0  0  0  0
  -27.0767   -1.0307  -31.9821 C   0  0  0  0  0  0  0  0  0  0  0  0
  -26.7546    6.4856  -29.5716 C   0  0  0  0  0  0  0  0  0  0  0  0
  -26.9042    6.8452  -31.9848 C   0  0  0  0  0  0  0  0  0  0  0  0
  -26.2743    0.5724  -33.6244 C   0  0  0  0  0  0  0  0  0  0  0  0
  -26.0598   -0.1658  -32.4353 C   0  0  0  0  0  0  0  0  0  0  0  0
  -24.7223   -0.0299  -31.7510 C   0  0  0  0  0  0  0  0  0  0  0  0
  -24.8709    2.1259  -30.5565 C   0  0  0  0  0  0  0  0  0  0  0  0
  -24.7049    6.6229  -30.9707 C   0  0  0  0  0  0  0  0  0  0  0  0
  -23.9693    1.2297  -31.3671 C   0  0  0  0  0  0  0  0  0  0  0  0
  -22.7307    5.6966  -27.5125 C   0  0  0  0  0  0  0  0  0  0  0  0
  -22.6721    4.9494  -26.3540 C   0  0  0  0  0  0  0  0  0  0  0  0
  -22.5326    7.1917  -30.0028 C   0  0  0  0  0  0  0  0  0  0  0  0
  -22.4536   -0.4616  -30.7587 C   0  0  0  0  0  0  0  0  0  0  0  0
  -22.3840    5.1130  -28.7783 C   0  0  0  0  0  0  0  0  0  0  0  0
  -22.1783    3.6834  -26.3711 C   0  0  0  0  0  0  0  0  0  0  0  0
  -21.9821    3.7429  -28.7809 C   0  0  0  0  0  0  0  0  0  0  0  0
  -21.7635    1.6707  -29.9866 C   0  0  0  0  0  0  0  0  0  0  0  0
  -21.8702    3.0935  -27.5714 C   0  0  0  0  0  0  0  0  0  0  0  0
  -21.3296   -1.0734  -30.1322 C   0  0  0  0  0  0  0  0  0  0  0  0
  -21.4107    5.3381  -31.0680 C   0  0  0  0  0  0  0  0  0  0  0  0
  -21.0993    3.8392  -31.0652 C   0  0  0  0  0  0  0  0  0  0  0  0
  -20.9141   -2.3384  -30.4675 C   0  0  0  0  0  0  0  0  0  0  0  0
  -20.6274   -0.3086  -29.1956 C   0  0  0  0  0  0  0  0  0  0  0  0
  -19.9101   -2.9390  -29.7492 C   0  0  0  0  0  0  0  0  0  0  0  0
  -19.6711   -0.9304  -28.3834 C   0  0  0  0  0  0  0  0  0  0  0  0
  -19.2619   -2.2629  -28.7075 C   0  0  0  0  0  0  0  0  0  0  0  0
  -21.6605    7.8978  -29.6412 O   0  0  0  0  0  0  0  0  0  0  0  0
  -31.9695   -1.8095  -36.9994 N   0  0  0  0  0  0  0  0  0  0  0  0
  -31.8073   -3.8949  -37.9041 N   0  0  0  0  0  0  0  0  0  0  0  0
  -29.9274   -2.4232  -35.2819 N   0  0  0  0  0  0  0  0  0  0  0  0
  -28.3397    6.8499  -31.8285 N   0  0  0  0  0  0  0  0  0  0  0  0
  -26.1287    7.0514  -30.7971 N   0  0  0  0  0  0  0  0  0  0  0  0
  -23.7816    7.4608  -30.2416 N   0  0  0  0  0  0  0  0  0  0  0  0
  -22.7125    0.8495  -30.6653 N   0  0  0  0  0  0  0  0  0  0  0  0
  -22.2338    5.8462  -29.9492 N   0  0  0  0  0  0  0  0  0  0  0  0
  -21.7961    3.0940  -30.0366 N   0  0  0  0  0  0  0  0  0  0  0  0
  -20.8731    1.0291  -29.1123 N   0  0  0  0  0  0  0  0  0  0  0  0
  -23.6487   -1.2702  -31.6785 S   0  0  0  0  0  0  0  0  0  0  0  0
  -21.5878   -3.0899  -31.3708 F   0  0  0  0  0  0  0  0  0  0  0  0
  -19.4674   -4.5694  -30.2274 Cl  0  0  0  0  0  0  0  0  0  0  0  0
  1  2  2  0
  1  3  1  0
  2  5  1  0
  3  7  1  0
  3 42  2  0
  4  6  1  0
  4 42  1  0
  4 43  2  0
  5  8  2  0
  6 44  2  0
  7  8  1  0
  7 44  1  0
  8 11  1  0
  9 45  1  0
 10 13  1  0
 10 45  1  0
 11 12  2  0
 11 14  1  0
 12 15  1  0
 13 16  1  0
 14 18  1  0
 15 19  1  0
 16 46  1  0
 17 45  1  0
 17 46  1  0
 18 19  2  0
 19 20  1  0
 20 23  1  0
 20 52  1  0
 21 23  1  0
 22 46  1  0
 22 47  1  0
 23 48  1  0
 24 25  2  0
 24 28  1  0
 25 29  1  0
 26 41  2  0
 26 47  1  0
 26 49  1  0
 27 33  1  0
 27 48  1  0
 27 52  1  0
 28 30  2  0
 28 49  1  0
 29 32  2  0
 30 32  1  0
 30 50  1  0
 31 48  1  0
 31 50  1  0
 31 51  1  0
 33 36  1  0
 33 37  1  0
 34 35  1  0
 34 49  1  0
 35 50  1  0
 36 38  2  0
 36 53  1  0
 37 39  1  0
 37 51  2  0
 38 40  1  0
 38 54  1  0
 39 40  2  0
M  END
$$$$

     RDKit          3D

 50 57  0  0  0  0  0  0  0  0999 V2000
  -31.8468    7.7390  -29.6341 C   0  0  0  0  0  0  0  0  0  0  0  0
  -31.2768    7.6013  -30.8577 C   0  0  0  0  0  0  0  0  0  0  0  0
  -30.9959    7.7603  -28.5263 C   0  0  0  0  0  0  0  0  0  0  0  0
  -29.9111    7.4661  -31.0158 C   0  0  0  0  0  0  0  0  0  0  0  0
  -29.6196    7.6229  -28.6336 C   0  0  0  0  0  0  0  0  0  0  0  0
  -29.4460    7.4197  -32.3737 C   0  0  0  0  0  0  0  0  0  0  0  0
  -29.0759    7.4678  -29.8928 C   0  0  0  0  0  0  0  0  0  0  0  0
  -27.5604    7.2289  -33.8587 C   0  0  0  0  0  0  0  0  0  0  0  0
  -27.5266    8.3514  -36.0395 C   0  0  0  0  0  0  0  0  0  0  0  0
  -26.7490    7.2826  -36.6033 C   0  0  0  0  0  0  0  0  0  0  0  0
  -26.5348   -0.4245  -32.9256 C   0  0  0  0  0  0  0  0  0  0  0  0
  -26.2410    6.7126  -34.2201 C   0  0  0  0  0  0  0  0  0  0  0  0
  -26.1716    0.6711  -32.1629 C   0  0  0  0  0  0  0  0  0  0  0  0
  -26.0190    6.4264  -35.6431 C   0  0  0  0  0  0  0  0  0  0  0  0
  -25.9122   -0.6908  -34.1214 C   0  0  0  0  0  0  0  0  0  0  0  0
  -25.8750    4.5151  -33.1005 C   0  0  0  0  0  0  0  0  0  0  0  0
  -25.0841    1.4673  -32.5836 C   0  0  0  0  0  0  0  0  0  0  0  0
  -24.8344    0.0670  -34.5493 C   0  0  0  0  0  0  0  0  0  0  0  0
  -24.7844    3.9922  -32.2951 C   0  0  0  0  0  0  0  0  0  0  0  0
  -24.6018    2.5998  -31.7155 C   0  0  0  0  0  0  0  0  0  0  0  0
  -24.4042    1.1646  -33.7761 C   0  0  0  0  0  0  0  0  0  0  0  0
  -24.3386    6.1816  -32.8288 C   0  0  0  0  0  0  0  0  0  0  0  0
  -23.0646    1.4560  -30.2645 C   0  0  0  0  0  0  0  0  0  0  0  0
  -22.9596   -1.0681  -31.1334 C   0  0  0  0  0  0  0  0  0  0  0  0
  -22.4924   -0.0038  -30.3090 C   0  0  0  0  0  0  0  0  0  0  0  0
  -22.3257   -2.3516  -31.1097 C   0  0  0  0  0  0  0  0  0  0  0  0
  -22.1113    2.2220  -33.6423 C   0  0  0  0  0  0  0  0  0  0  0  0
  -22.0222    2.3973  -32.2392 C   0  0  0  0  0  0  0  0  0  0  0  0
  -21.4415   -0.2346  -29.4352 C   0  0  0  0  0  0  0  0  0  0  0  0
  -21.1984   -2.4797  -30.2580 C   0  0  0  0  0  0  0  0  0  0  0  0
  -20.7798   -1.4600  -29.4164 C   0  0  0  0  0  0  0  0  0  0  0  0
  -20.9427    2.3521  -34.4235 C   0  0  0  0  0  0  0  0  0  0  0  0
  -20.8175    2.7448  -31.6615 C   0  0  0  0  0  0  0  0  0  0  0  0
  -20.4230   -4.8285  -30.6783 C   0  0  0  0  0  0  0  0  0  0  0  0
  -19.7162    2.7525  -33.8215 C   0  0  0  0  0  0  0  0  0  0  0  0
  -19.6884    2.9537  -32.4549 C   0  0  0  0  0  0  0  0  0  0  0  0
  -19.3558   -3.1176  -29.1123 C   0  0  0  0  0  0  0  0  0  0  0  0
  -19.0863   -1.1435  -27.5835 C   0  0  0  0  0  0  0  0  0  0  0  0
  -26.8789    3.9327  -33.5147 O   0  0  0  0  0  0  0  0  0  0  0  0
  -23.1271    2.1020  -29.1784 O   0  0  0  0  0  0  0  0  0  0  0  0
  -19.4303   -5.6474  -31.1663 O   0  0  0  0  0  0  0  0  0  0  0  0
  -28.0086    7.1765  -32.5701 N   0  0  0  0  0  0  0  0  0  0  0  0
  -27.9182    8.3254  -34.7086 N   0  0  0  0  0  0  0  0  0  0  0  0
  -25.5832    5.8277  -33.3636 N   0  0  0  0  0  0  0  0  0  0  0  0
  -23.9395    5.0324  -32.1418 N   0  0  0  0  0  0  0  0  0  0  0  0
  -23.3577    1.9760  -34.2902 N   0  0  0  0  0  0  0  0  0  0  0  0
  -23.1852    2.2163  -31.4016 N   0  0  0  0  0  0  0  0  0  0  0  0
  -20.3307   -3.5497  -30.0846 N   0  0  0  0  0  0  0  0  0  0  0  0
  -19.7168   -1.8866  -28.6757 N   0  0  0  0  0  0  0  0  0  0  0  0
  -18.5333    3.4060  -31.9264 F   0  0  0  0  0  0  0  0  0  0  0  0
  1  2  2  0
  1  3  1  0
  2  4  1  0
  3  5  1  0
  4  6  2  3
  4  7  1  0
  5  7  2  0
  6 42  1  0
  8 12  1  0
  8 42  2  3
  8 43  1  0
  9 10  1  0
  9 43  1  0
 10 14  2  0
 11 13  2  0
 11 15  1  0
 12 14  1  0
 12 44  1  0
 13 17  1  0
 15 18  2  0
 16 19  1  0
 16 39  2  0
 16 44  1  0
 17 20  1  0
 17 21  2  0
 18 21  1  0
 19 20  1  0
 19 45  1  0
 20 47  1  0
 21 46  1  0
 22 44  1  0
 22 45  1  0
 23 25  1  0
 23 40  2  0
 23 47  1  0
 24 25  2  0
 24 26  1  0
 25 29  1  0
 26 30  2  0
 27 28  2  0
 27 32  1  0
 27 46  1  0
 28 33  1  0
 28 47  1  0
 29 31  2  0
 30 31  1  0
 30 48  1  0
 31 49  1  0
 32 35  2  0
 33 36  2  0
 34 41  1  0
 34 48  1  0
 35 36  1  0
 36 50  1  0
 37 48  1  0
 37 49  1  0
 38 49  1  0
M  END
$$$$

     RDKit          3D

 46 50  0  0  0  0  0  0  0  0999 V2000
  -30.6152    0.8458  -35.0129 C   0  0  0  0  0  0  0  0  0  0  0  0
  -30.2852    2.7215  -33.4755 C   0  0  0  0  0  0  0  0  0  0  0  0
  -30.1700    5.0672  -32.4814 C   0  0  0  0  0  0  0  0  0  0  0  0
  -30.0455    7.5056  -32.0687 C   0  0  0  0  0  0  0  0  0  0  0  0
  -29.9356    1.2774  -33.7859 C   0  0  0  0  0  0  0  0  0  0  0  0
  -29.4828    6.3485  -32.7781 C   0  0  0  0  0  0  0  0  0  0  0  0
  -29.4216    3.7800  -32.8521 C   0  0  0  0  0  0  0  0  0  0  0  0
  -28.9669    6.4833  -34.1392 C   0  0  0  0  0  0  0  0  0  0  0  0
  -28.7149   -1.7265  -33.9086 C   0  0  0  0  0  0  0  0  0  0  0  0
  -28.6032    0.8350  -33.4639 C   0  0  0  0  0  0  0  0  0  0  0  0
  -28.1435   -0.5386  -33.2746 C   0  0  0  0  0  0  0  0  0  0  0  0
  -27.8484    7.4075  -34.4264 C   0  0  0  0  0  0  0  0  0  0  0  0
  -26.8944   -0.6701  -32.5839 C   0  0  0  0  0  0  0  0  0  0  0  0
  -26.5181    7.0234  -33.7757 C   0  0  0  0  0  0  0  0  0  0  0  0
  -25.3749    7.7187  -34.5378 C   0  0  0  0  0  0  0  0  0  0  0  0
  -25.0006    5.2527  -33.2209 C   0  0  0  0  0  0  0  0  0  0  0  0
  -24.7321    0.5044  -32.4220 C   0  0  0  0  0  0  0  0  0  0  0  0
  -24.5278    3.8710  -33.1092 C   0  0  0  0  0  0  0  0  0  0  0  0
  -24.0027   -0.7274  -31.9195 C   0  0  0  0  0  0  0  0  0  0  0  0
  -24.1760    1.5088  -33.3420 C   0  0  0  0  0  0  0  0  0  0  0  0
  -22.9888    3.6250  -33.2746 C   0  0  0  0  0  0  0  0  0  0  0  0
  -22.8143    2.1224  -33.0023 C   0  0  0  0  0  0  0  0  0  0  0  0
  -22.6428   -0.5624  -31.3654 C   0  0  0  0  0  0  0  0  0  0  0  0
  -22.5235    3.8510  -34.7721 C   0  0  0  0  0  0  0  0  0  0  0  0
  -21.9705    0.6706  -31.2368 C   0  0  0  0  0  0  0  0  0  0  0  0
  -21.7860   -1.5657  -30.7133 C   0  0  0  0  0  0  0  0  0  0  0  0
  -20.7822    0.4775  -30.5390 C   0  0  0  0  0  0  0  0  0  0  0  0
  -20.9102    1.2016  -26.1345 C   0  0  0  0  0  0  0  0  0  0  0  0
  -20.5990   -0.8807  -30.2228 C   0  0  0  0  0  0  0  0  0  0  0  0
  -20.0002    0.1649  -25.3641 C   0  0  0  0  0  0  0  0  0  0  0  0
  -19.7541    1.5362  -30.2679 C   0  0  0  0  0  0  0  0  0  0  0  0
  -19.3817   -1.4357  -29.5038 C   0  0  0  0  0  0  0  0  0  0  0  0
  -19.2150   -0.7554  -26.3833 C   0  0  0  0  0  0  0  0  0  0  0  0
  -19.2113    2.1094  -31.5983 C   0  0  0  0  0  0  0  0  0  0  0  0
  -18.5573   -2.3181  -30.3648 C   0  0  0  0  0  0  0  0  0  0  0  0
  -18.5933   -0.3119  -28.7962 C   0  0  0  0  0  0  0  0  0  0  0  0
  -17.6285   -1.0868  -26.0784 C   0  0  0  0  0  0  0  0  0  0  0  0
  -26.2601    5.5628  -33.7373 O   0  0  0  0  0  0  0  0  0  0  0  0
  -25.9694    0.2287  -33.0773 O   0  0  0  0  0  0  0  0  0  0  0  0
  -25.3021    7.2832  -35.8479 O   0  0  0  0  0  0  0  0  0  0  0  0
  -25.1550    2.6474  -33.1712 O   0  0  0  0  0  0  0  0  0  0  0  0
  -24.7101   -1.6591  -31.3907 O   0  0  0  0  0  0  0  0  0  0  0  0
  -22.3653    1.9208  -31.6334 O   0  0  0  0  0  0  0  0  0  0  0  0
  -22.1357    4.3651  -32.3915 O   0  0  0  0  0  0  0  0  0  0  0  0
  -19.2628    0.0142  -27.5736 O   0  0  0  0  0  0  0  0  0  0  0  0
  -18.5777    0.9196  -29.5924 O   0  0  0  0  0  0  0  0  0  0  0  0
  1  5  1  0
  2  5  1  0
  2  7  1  0
  3  6  1  0
  3  7  1  0
  4  6  1  0
  5 10  1  0
  6  8  1  0
  8 12  1  0
  9 11  1  0
 10 11  1  0
 11 13  1  0
 12 14  1  0
 13 39  1  0
 14 15  1  0
 14 38  1  0
 15 40  1  0
 16 18  1  0
 16 38  1  0
 17 19  1  0
 17 20  1  0
 17 39  1  0
 18 21  1  0
 18 41  1  0
 19 23  1  0
 19 42  2  0
 20 22  1  0
 20 41  1  0
 21 22  1  0
 21 24  1  0
 21 44  1  0
 22 43  1  0
 23 25  1  0
 23 26  1  0
 25 27  2  0
 25 43  1  0
 26 29  1  0
 27 29  1  0
 27 31  1  0
 28 30  1  0
 29 32  1  0
 30 33  1  0
 31 34  1  0
 31 46  1  0
 32 35  1  0
 32 36  1  0
 33 37  1  0
 33 45  1  0
 36 45  1  0
 36 46  1  0
M  END
$$$$

     RDKit          3D

 34 38  0  0  0  0  0  0  0  0999 V2000
  -32.1530    0.9827  -34.1763 C   0  0  0  0  0  0  0  0  0  0  0  0
  -31.7256    2.3008  -33.8265 C   0  0  0  0  0  0  0  0  0  0  0  0
  -31.1600   -0.0575  -34.1319 C   0  0  0  0  0  0  0  0  0  0  0  0
  -30.3982    2.5534  -33.4526 C   0  0  0  0  0  0  0  0  0  0  0  0
  -29.8063    0.2058  -33.7885 C   0  0  0  0  0  0  0  0  0  0  0  0
  -29.4427    1.5163  -33.4402 C   0  0  0  0  0  0  0  0  0  0  0  0
  -28.8244   -0.8296  -33.7465 C   0  0  0  0  0  0  0  0  0  0  0  0
  -27.5269   -0.5121  -33.2823 C   0  0  0  0  0  0  0  0  0  0  0  0
  -27.2217    0.8344  -32.9425 C   0  0  0  0  0  0  0  0  0  0  0  0
  -25.9195    1.2320  -32.4424 C   0  0  0  0  0  0  0  0  0  0  0  0
  -25.6269    2.5661  -32.3310 C   0  0  0  0  0  0  0  0  0  0  0  0
  -24.9375    0.3345  -32.0269 C   0  0  0  0  0  0  0  0  0  0  0  0
  -24.4587    3.0729  -31.8299 C   0  0  0  0  0  0  0  0  0  0  0  0
  -23.7147    0.8277  -31.5186 C   0  0  0  0  0  0  0  0  0  0  0  0
  -23.4971    2.1786  -31.4169 C   0  0  0  0  0  0  0  0  0  0  0  0
  -22.7305   -1.2654  -30.8772 C   0  0  0  0  0  0  0  0  0  0  0  0
  -22.8817    4.4376  -29.2174 C   0  0  0  0  0  0  0  0  0  0  0  0
  -22.8211    4.9319  -27.9116 C   0  0  0  0  0  0  0  0  0  0  0  0
  -22.3634    3.1614  -29.5148 C   0  0  0  0  0  0  0  0  0  0  0  0
  -22.2625    4.1349  -26.8914 C   0  0  0  0  0  0  0  0  0  0  0  0
  -21.8580    2.3931  -28.4982 C   0  0  0  0  0  0  0  0  0  0  0  0
  -21.7515    2.8674  -27.2014 C   0  0  0  0  0  0  0  0  0  0  0  0
  -21.4244   -3.3332  -30.5472 C   0  0  0  0  0  0  0  0  0  0  0  0
  -21.4545   -1.9533  -30.7464 C   0  0  0  0  0  0  0  0  0  0  0  0
  -21.3757    3.4120  -31.6856 C   0  0  0  0  0  0  0  0  0  0  0  0
  -20.2605   -1.2041  -30.7732 C   0  0  0  0  0  0  0  0  0  0  0  0
  -20.2086   -3.9370  -30.3329 C   0  0  0  0  0  0  0  0  0  0  0  0
  -19.0301   -3.2077  -30.3412 C   0  0  0  0  0  0  0  0  0  0  0  0
  -19.0571   -1.8240  -30.5453 C   0  0  0  0  0  0  0  0  0  0  0  0
  -23.7410   -1.7983  -30.5076 O   0  0  0  0  0  0  0  0  0  0  0  0
  -28.1605    1.7890  -33.0481 N   0  0  0  0  0  0  0  0  0  0  0  0
  -22.7007    0.0439  -31.1333 N   0  0  0  0  0  0  0  0  0  0  0  0
  -22.2969    2.6471  -30.8626 N   0  0  0  0  0  0  0  0  0  0  0  0
  -22.2774    4.7990  -25.3523 Cl  0  0  0  0  0  0  0  0  0  0  0  0
  1  2  2  0
  1  3  1  0
  2  4  1  0
  3  5  2  0
  4  6  2  0
  5  6  1  0
  5  7  1  0
  6 31  1  0
  7  8  2  0
  8  9  1  0
  9 10  1  0
  9 31  2  0
 10 11  2  0
 10 12  1  0
 11 13  1  0
 12 14  2  0
 13 15  2  0
 14 15  1  0
 14 32  1  0
 15 33  1  0
 16 24  1  0
 16 30  2  0
 16 32  1  0
 17 18  2  0
 17 19  1  0
 18 20  1  0
 19 21  2  0
 19 33  1  0
 20 22  2  0
 20 34  1  0
 21 22  1  0
 23 24  1  0
 23 27  2  0
 24 26  1  0
 25 33  1  0
 26 29  2  0
 27 28  1  0
 28 29  1  0
M  END
$$$$

     RDKit          3D

 42 47  0  0  0  0  0  0  0  0999 V2000
  -31.8179   -1.6484  -36.8878 C   0  0  0  0  0  0  0  0  0  0  0  0
  -31.5182   -0.6430  -35.9950 C   0  0  0  0  0  0  0  0  0  0  0  0
  -31.1151   -2.8586  -36.7614 C   0  0  0  0  0  0  0  0  0  0  0  0
  -30.6072   -0.7876  -34.9490 C   0  0  0  0  0  0  0  0  0  0  0  0
  -30.1688   -3.0504  -35.7400 C   0  0  0  0  0  0  0  0  0  0  0  0
  -29.8716   -1.9930  -34.8725 C   0  0  0  0  0  0  0  0  0  0  0  0
  -29.4120    0.0459  -33.0350 C   0  0  0  0  0  0  0  0  0  0  0  0
  -28.0981    0.7248  -33.3389 C   0  0  0  0  0  0  0  0  0  0  0  0
  -26.8045    0.6246  -32.6754 C   0  0  0  0  0  0  0  0  0  0  0  0
  -26.6082    1.8104  -34.5643 C   0  0  0  0  0  0  0  0  0  0  0  0
  -25.8792    1.2759  -33.4974 C   0  0  0  0  0  0  0  0  0  0  0  0
  -24.2638    1.4740  -33.2448 C   0  0  0  0  0  0  0  0  0  0  0  0
  -23.6724    1.2028  -31.9574 C   0  0  0  0  0  0  0  0  0  0  0  0
  -23.4891    1.7213  -35.5532 C   0  0  0  0  0  0  0  0  0  0  0  0
  -23.1536    5.2037  -27.6483 C   0  0  0  0  0  0  0  0  0  0  0  0
  -22.6065    2.3370  -36.4948 C   0  0  0  0  0  0  0  0  0  0  0  0
  -22.5761    3.1483  -33.7156 C   0  0  0  0  0  0  0  0  0  0  0  0
  -22.4393    1.8103  -37.7774 C   0  0  0  0  0  0  0  0  0  0  0  0
  -22.3401    2.9289  -28.9923 C   0  0  0  0  0  0  0  0  0  0  0  0
  -22.2929    5.2488  -25.2178 C   0  0  0  0  0  0  0  0  0  0  0  0
  -22.1493    1.9843  -30.0663 C   0  0  0  0  0  0  0  0  0  0  0  0
  -22.0352    3.0581  -32.3580 C   0  0  0  0  0  0  0  0  0  0  0  0
  -22.0745    4.1078  -34.7308 C   0  0  0  0  0  0  0  0  0  0  0  0
  -21.9074    2.5657  -27.6677 C   0  0  0  0  0  0  0  0  0  0  0  0
  -21.9377    3.5304  -36.1221 C   0  0  0  0  0  0  0  0  0  0  0  0
  -21.9097    3.4604  -26.4743 C   0  0  0  0  0  0  0  0  0  0  0  0
  -21.5071    0.7608  -29.7760 C   0  0  0  0  0  0  0  0  0  0  0  0
  -21.6632    2.5233  -38.7216 C   0  0  0  0  0  0  0  0  0  0  0  0
  -21.2981    1.3538  -27.4467 C   0  0  0  0  0  0  0  0  0  0  0  0
  -21.4177    3.0756  -25.2209 C   0  0  0  0  0  0  0  0  0  0  0  0
  -21.3217    4.1505  -31.8388 C   0  0  0  0  0  0  0  0  0  0  0  0
  -21.1439    0.4575  -28.4619 C   0  0  0  0  0  0  0  0  0  0  0  0
  -20.9939    3.6725  -38.3543 C   0  0  0  0  0  0  0  0  0  0  0  0
  -21.1890    4.2001  -37.0929 C   0  0  0  0  0  0  0  0  0  0  0  0
  -30.3550    0.2402  -34.0682 O   0  0  0  0  0  0  0  0  0  0  0  0
  -27.9544    1.4801  -34.4428 O   0  0  0  0  0  0  0  0  0  0  0  0
  -23.9779    0.1775  -31.2556 O   0  0  0  0  0  0  0  0  0  0  0  0
  -23.4123    2.0364  -34.1933 N   0  0  0  0  0  0  0  0  0  0  0  0
  -22.6395    2.1092  -31.4495 N   0  0  0  0  0  0  0  0  0  0  0  0
  -22.4332    4.6682  -26.4376 N   0  0  0  0  0  0  0  0  0  0  0  0
  -22.4460    6.6635  -25.2636 N   0  0  0  0  0  0  0  0  0  0  0  0
  -21.4878    2.0730  -40.3816 Cl  0  0  0  0  0  0  0  0  0  0  0  0
  1  2  2  0
  1  3  1  0
  2  4  1  0
  3  5  2  0
  4  6  2  0
  4 35  1  0
  5  6  1  0
  7  8  1  0
  7 35  1  0
  8  9  1  0
  8 36  1  0
  9 11  1  0
 10 11  1  0
 10 36  1  0
 11 12  2  3
 12 13  1  0
 12 38  1  0
 13 37  2  0
 13 39  1  0
 14 16  1  0
 14 38  1  0
 15 40  1  0
 16 18  1  0
 16 25  2  0
 17 22  1  0
 17 23  1  0
 17 38  1  0
 18 28  2  0
 19 21  1  0
 19 24  1  0
 20 40  1  0
 20 41  1  0
 21 27  2  0
 21 39  1  0
 22 31  1  0
 22 39  1  0
 23 25  1  0
 24 26  2  3
 24 29  1  0
 25 34  1  0
 26 30  1  0
 26 40  1  0
 27 32  1  0
 28 33  1  0
 28 42  1  0
 29 32  2  0
 33 34  2  0
M  END
$$$$

     RDKit          3D

 41 45  0  0  0  0  0  0  0  0999 V2000
  -30.5042    1.8210  -36.9052 C   0  0  0  0  0  0  0  0  0  0  0  0
  -30.0193    1.1166  -35.8034 C   0  0  0  0  0  0  0  0  0  0  0  0
  -29.9278    3.0236  -37.3045 C   0  0  0  0  0  0  0  0  0  0  0  0
  -28.9518    1.6518  -35.0855 C   0  0  0  0  0  0  0  0  0  0  0  0
  -28.8547    3.5217  -36.6016 C   0  0  0  0  0  0  0  0  0  0  0  0
  -28.5431    0.9411  -33.8102 C   0  0  0  0  0  0  0  0  0  0  0  0
  -28.5651    4.5468  -32.9646 C   0  0  0  0  0  0  0  0  0  0  0  0
  -28.5849    5.4084  -32.0195 C   0  0  0  0  0  0  0  0  0  0  0  0
  -28.3366    2.8487  -35.4981 C   0  0  0  0  0  0  0  0  0  0  0  0
  -27.6465    5.6140  -31.3970 C   0  0  0  0  0  0  0  0  0  0  0  0
  -27.3285    4.1688  -33.6042 C   0  0  0  0  0  0  0  0  0  0  0  0
  -27.1664    3.3908  -34.7982 C   0  0  0  0  0  0  0  0  0  0  0  0
  -26.1918    4.6256  -32.9231 C   0  0  0  0  0  0  0  0  0  0  0  0
  -25.8683    3.1732  -35.3218 C   0  0  0  0  0  0  0  0  0  0  0  0
  -24.7407    3.5914  -34.6079 C   0  0  0  0  0  0  0  0  0  0  0  0
  -24.9197    4.3311  -33.4286 C   0  0  0  0  0  0  0  0  0  0  0  0
  -23.7216   -0.3860  -31.5569 C   0  0  0  0  0  0  0  0  0  0  0  0
  -23.7745    4.7363  -32.5832 C   0  0  0  0  0  0  0  0  0  0  0  0
  -23.6417    0.9905  -31.6646 C   0  0  0  0  0  0  0  0  0  0  0  0
  -23.6282    3.7387  -31.4097 C   0  0  0  0  0  0  0  0  0  0  0  0
  -22.5535   -1.1427  -31.3315 C   0  0  0  0  0  0  0  0  0  0  0  0
  -22.6952    7.6969  -29.8458 C   0  0  0  0  0  0  0  0  0  0  0  0
  -22.3351   -2.5504  -31.1213 C   0  0  0  0  0  0  0  0  0  0  0  0
  -22.4548    1.6410  -31.5364 C   0  0  0  0  0  0  0  0  0  0  0  0
  -21.5583    5.4652  -30.6466 C   0  0  0  0  0  0  0  0  0  0  0  0
  -21.6318    7.1869  -28.9869 C   0  0  0  0  0  0  0  0  0  0  0  0
  -21.3511   -0.5000  -31.3032 C   0  0  0  0  0  0  0  0  0  0  0  0
  -21.2761    0.9091  -31.4401 C   0  0  0  0  0  0  0  0  0  0  0  0
  -20.9818    5.9573  -29.4422 C   0  0  0  0  0  0  0  0  0  0  0  0
  -20.9369   -2.7194  -30.9669 C   0  0  0  0  0  0  0  0  0  0  0  0
  -20.3926   -5.3184  -31.0202 C   0  0  0  0  0  0  0  0  0  0  0  0
  -18.9720   -1.1253  -30.9979 C   0  0  0  0  0  0  0  0  0  0  0  0
  -24.3411    3.7310  -30.3853 O   0  0  0  0  0  0  0  0  0  0  0  0
  -20.3090    3.1570  -30.1165 O   0  0  0  0  0  0  0  0  0  0  0  0
  -20.4052    4.0028  -32.4656 O   0  0  0  0  0  0  0  0  0  0  0  0
  -18.9551   -3.7956  -30.5986 O   0  0  0  0  0  0  0  0  0  0  0  0
  -26.4014    5.3564  -31.8126 N   0  0  0  0  0  0  0  0  0  0  0  0
  -22.4579    3.0269  -31.4149 N   0  0  0  0  0  0  0  0  0  0  0  0
  -20.2187   -3.8645  -30.7595 N   0  0  0  0  0  0  0  0  0  0  0  0
  -20.3763   -1.4549  -31.1085 N   0  0  0  0  0  0  0  0  0  0  0  0
  -21.0603    3.8747  -31.1407 S   0  0  0  0  0  0  0  0  0  0  0  0
  1  2  2  0
  1  3  1  0
  2  4  1  0
  3  5  2  0
  4  6  1  0
  4  9  2  0
  5  9  1  0
  7  8  1  0
  7 11  2  0
  8 10  1  0
  9 12  1  0
 10 37  2  0
 11 12  1  0
 11 13  1  0
 12 14  1  0
 13 16  2  0
 13 37  1  0
 14 15  2  0
 15 16  1  0
 16 18  1  0
 17 19  1  0
 17 21  1  0
 18 20  1  0
 19 24  2  0
 20 33  2  0
 20 38  1  0
 21 23  1  0
 21 27  2  0
 22 26  1  0
 23 30  1  0
 24 28  1  0
 24 38  1  0
 25 29  1  0
 25 41  1  0
 26 29  1  0
 27 28  1  0
 27 40  1  0
 30 39  1  0
 30 40  1  0
 31 39  1  0
 32 40  1  0
 34 41  1  0
 35 41  1  0
 36 39  1  0
 38 41  1  0
M  END
$$$$

     RDKit          3D

 54 60  0  0  0  0  0  0  0  0999 V2000
  -32.0041   -2.3059  -36.7153 C   0  0  0  0  0  0  0  0  0  0  0  0
  -32.1250    0.1500  -36.2719 C   0  0  0  0  0  0  0  0  0  0  0  0
  -31.4256   -1.0987  -36.1159 C   0  0  0  0  0  0  0  0  0  0  0  0
  -31.4392    1.3272  -35.8013 C   0  0  0  0  0  0  0  0  0  0  0  0
  -31.1179   -3.3620  -37.1376 C   0  0  0  0  0  0  0  0  0  0  0  0
  -30.7723    2.8920  -33.3492 C   0  0  0  0  0  0  0  0  0  0  0  0
  -30.6889   -5.3996  -38.4346 C   0  0  0  0  0  0  0  0  0  0  0  0
  -30.5934    4.1899  -32.7471 C   0  0  0  0  0  0  0  0  0  0  0  0
  -29.7248    2.4588  -34.3560 C   0  0  0  0  0  0  0  0  0  0  0  0
  -29.9601    6.5635  -32.8724 C   0  0  0  0  0  0  0  0  0  0  0  0
  -29.6576   -0.0056  -34.8728 C   0  0  0  0  0  0  0  0  0  0  0  0
  -29.6329    5.0827  -33.3408 C   0  0  0  0  0  0  0  0  0  0  0  0
  -29.5426    7.2051  -30.4640 C   0  0  0  0  0  0  0  0  0  0  0  0
  -29.3044    3.6122  -35.3333 C   0  0  0  0  0  0  0  0  0  0  0  0
  -29.2181    4.9615  -34.7105 C   0  0  0  0  0  0  0  0  0  0  0  0
  -29.0245    6.9423  -31.7294 C   0  0  0  0  0  0  0  0  0  0  0  0
  -28.7246    7.4687  -29.3624 C   0  0  0  0  0  0  0  0  0  0  0  0
  -28.5541   -0.9929  -32.8255 C   0  0  0  0  0  0  0  0  0  0  0  0
  -28.4774   -0.2232  -34.0032 C   0  0  0  0  0  0  0  0  0  0  0  0
  -27.6081    6.9152  -31.8761 C   0  0  0  0  0  0  0  0  0  0  0  0
  -27.4184   -1.1483  -32.0090 C   0  0  0  0  0  0  0  0  0  0  0  0
  -27.2155    0.3468  -34.3412 C   0  0  0  0  0  0  0  0  0  0  0  0
  -27.3492    7.4630  -29.5119 C   0  0  0  0  0  0  0  0  0  0  0  0
  -26.7669    7.1799  -30.7323 C   0  0  0  0  0  0  0  0  0  0  0  0
  -26.1882   -0.5587  -32.3279 C   0  0  0  0  0  0  0  0  0  0  0  0
  -26.0851    0.1763  -33.5101 C   0  0  0  0  0  0  0  0  0  0  0  0
  -25.2460    7.1351  -30.8344 C   0  0  0  0  0  0  0  0  0  0  0  0
  -25.0167   -0.8113  -31.3981 C   0  0  0  0  0  0  0  0  0  0  0  0
  -23.6015   -0.4973  -31.8476 C   0  0  0  0  0  0  0  0  0  0  0  0
  -23.0139    7.3147  -29.6127 C   0  0  0  0  0  0  0  0  0  0  0  0
  -22.7364   -0.0315  -30.7231 C   0  0  0  0  0  0  0  0  0  0  0  0
  -22.4981    5.7970  -26.9069 C   0  0  0  0  0  0  0  0  0  0  0  0
  -22.4431    4.8800  -25.8305 C   0  0  0  0  0  0  0  0  0  0  0  0
  -22.2495    6.0525  -29.4368 C   0  0  0  0  0  0  0  0  0  0  0  0
  -22.0893    3.5499  -26.0856 C   0  0  0  0  0  0  0  0  0  0  0  0
  -22.1922    5.3073  -28.2102 C   0  0  0  0  0  0  0  0  0  0  0  0
  -21.7546    3.1027  -27.3403 C   0  0  0  0  0  0  0  0  0  0  0  0
  -21.7937    3.9992  -28.3762 C   0  0  0  0  0  0  0  0  0  0  0  0
  -21.6315   -0.8526  -30.1313 C   0  0  0  0  0  0  0  0  0  0  0  0
  -21.4039   -2.2270  -30.5014 C   0  0  0  0  0  0  0  0  0  0  0  0
  -21.3680    1.6077  -27.5536 C   0  0  0  0  0  0  0  0  0  0  0  0
  -20.7637   -0.2067  -29.2283 C   0  0  0  0  0  0  0  0  0  0  0  0
  -20.2725   -2.8857  -30.0323 C   0  0  0  0  0  0  0  0  0  0  0  0
  -19.5786   -0.8966  -28.8262 C   0  0  0  0  0  0  0  0  0  0  0  0
  -19.3291   -2.2511  -29.2120 C   0  0  0  0  0  0  0  0  0  0  0  0
  -29.9063   -3.5102  -36.6152 O   0  0  0  0  0  0  0  0  0  0  0  0
  -24.7111    7.0342  -31.9278 O   0  0  0  0  0  0  0  0  0  0  0  0
  -21.1327    1.1047  -28.8133 O   0  0  0  0  0  0  0  0  0  0  0  0
  -31.5847   -4.4386  -37.7362 N   0  0  0  0  0  0  0  0  0  0  0  0
  -30.2141   -1.0973  -35.4785 N   0  0  0  0  0  0  0  0  0  0  0  0
  -30.2382    1.2380  -35.0358 N   0  0  0  0  0  0  0  0  0  0  0  0
  -24.4481    7.2669  -29.7049 N   0  0  0  0  0  0  0  0  0  0  0  0
  -22.2908    8.4207  -29.4495 N   0  0  0  0  0  0  0  0  0  0  0  0
  -20.0354   -4.5627  -30.5614 Cl  0  0  0  0  0  0  0  0  0  0  0  0
  1  3  1  0
  1  5  1  0
  2  3  2  0
  2  4  1  0
  3 50  1  0
  4 51  1  0
  5 46  2  0
  5 49  1  0
  6  8  2  0
  6  9  1  0
  7 49  1  0
  8 12  1  0
  9 14  1  0
  9 51  1  0
 10 12  1  0
 10 16  1  0
 11 19  1  0
 11 50  2  0
 11 51  1  0
 12 15  1  0
 13 16  2  0
 13 17  1  0
 14 15  1  0
 16 20  1  0
 17 23  2  0
 18 19  2  0
 18 21  1  0
 19 22  1  0
 20 24  2  0
 21 25  2  0
 22 26  2  0
 23 24  1  0
 24 27  1  0
 25 26  1  0
 25 28  1  0
 27 47  2  0
 27 52  1  0
 28 29  1  0
 29 31  1  0
 30 34  1  0
 30 52  1  0
 30 53  2  0
 31 39  1  0
 32 33  1  0
 32 36  2  0
 33 35  2  0
 34 36  1  0
 35 37  1  0
 36 38  1  0
 37 38  2  0
 37 41  1  0
 39 40  1  0
 39 42  2  0
 40 43  2  0
 41 48  1  0
 42 44  1  0
 42 48  1  0
 43 45  1  0
 43 54  1  0
 44 45  2  0
M  END
$$$$

     RDKit          3D

 41 46  0  0  0  0  0  0  0  0999 V2000
  -31.4531    4.9008  -34.6245 C   0  0  0  0  0  0  0  0  0  0  0  0
  -30.4746    5.7140  -34.1292 C   0  0  0  0  0  0  0  0  0  0  0  0
  -30.3281    2.9855  -33.9113 C   0  0  0  0  0  0  0  0  0  0  0  0
  -29.3447    0.9793  -33.3310 C   0  0  0  0  0  0  0  0  0  0  0  0
  -29.3647    5.1533  -33.4981 C   0  0  0  0  0  0  0  0  0  0  0  0
  -28.5543    6.1841  -31.4303 C   0  0  0  0  0  0  0  0  0  0  0  0
  -28.4057    6.0390  -32.8134 C   0  0  0  0  0  0  0  0  0  0  0  0
  -28.1007    3.0014  -33.0434 C   0  0  0  0  0  0  0  0  0  0  0  0
  -27.8292    6.8294  -29.1946 C   0  0  0  0  0  0  0  0  0  0  0  0
  -27.3901    6.7332  -33.4625 C   0  0  0  0  0  0  0  0  0  0  0  0
  -27.0507   -0.6042  -32.8930 C   0  0  0  0  0  0  0  0  0  0  0  0
  -27.0607    0.8409  -32.6986 C   0  0  0  0  0  0  0  0  0  0  0  0
  -26.4978    7.5036  -32.6844 C   0  0  0  0  0  0  0  0  0  0  0  0
  -26.6890    7.5838  -31.2915 C   0  0  0  0  0  0  0  0  0  0  0  0
  -25.9287    1.4666  -32.0999 C   0  0  0  0  0  0  0  0  0  0  0  0
  -25.6899    8.3040  -30.4000 C   0  0  0  0  0  0  0  0  0  0  0  0
  -24.8883    3.6686  -31.3931 C   0  0  0  0  0  0  0  0  0  0  0  0
  -23.5118    3.5453  -32.0300 C   0  0  0  0  0  0  0  0  0  0  0  0
  -23.3383    3.4590  -33.4262 C   0  0  0  0  0  0  0  0  0  0  0  0
  -21.2187    2.9469  -31.5361 C   0  0  0  0  0  0  0  0  0  0  0  0
  -20.8822   -2.4999  -30.8279 C   0  0  0  0  0  0  0  0  0  0  0  0
  -20.9606   -1.1239  -30.9191 C   0  0  0  0  0  0  0  0  0  0  0  0
  -20.9424    1.4652  -31.8200 C   0  0  0  0  0  0  0  0  0  0  0  0
  -20.0885    3.3887  -30.6236 C   0  0  0  0  0  0  0  0  0  0  0  0
  -19.7285   -4.5655  -30.4557 C   0  0  0  0  0  0  0  0  0  0  0  0
  -19.7537   -3.0546  -30.3907 C   0  0  0  0  0  0  0  0  0  0  0  0
  -19.9120   -0.3307  -30.5762 C   0  0  0  0  0  0  0  0  0  0  0  0
  -19.3899    2.0709  -30.1101 C   0  0  0  0  0  0  0  0  0  0  0  0
  -18.7659   -0.9379  -30.1051 C   0  0  0  0  0  0  0  0  0  0  0  0
  -18.6973   -2.3148  -29.9815 C   0  0  0  0  0  0  0  0  0  0  0  0
  -24.9876    0.7790  -31.6762 O   0  0  0  0  0  0  0  0  0  0  0  0
  -22.5079    3.2884  -31.1230 O   0  0  0  0  0  0  0  0  0  0  0  0
  -31.4071    3.5678  -34.4631 N   0  0  0  0  0  0  0  0  0  0  0  0
  -30.3822    1.6704  -33.7410 N   0  0  0  0  0  0  0  0  0  0  0  0
  -29.2290    3.7232  -33.4694 N   0  0  0  0  0  0  0  0  0  0  0  0
  -28.1880    1.6239  -33.0499 N   0  0  0  0  0  0  0  0  0  0  0  0
  -27.6987    6.9050  -30.6882 N   0  0  0  0  0  0  0  0  0  0  0  0
  -26.9411    3.6150  -32.6689 N   0  0  0  0  0  0  0  0  0  0  0  0
  -25.9324    2.8658  -32.0576 N   0  0  0  0  0  0  0  0  0  0  0  0
  -20.0544    0.9870  -30.8143 N   0  0  0  0  0  0  0  0  0  0  0  0
  -19.6361   -5.8058  -31.4725 F   0  0  0  0  0  0  0  0  0  0  0  0
  1  2  2  0
  1 33  1  0
  2  5  1  0
  3 33  2  0
  3 34  1  0
  3 35  1  0
  4 34  2  0
  4 36  1  0
  5  7  1  0
  5 35  1  0
  6  7  2  0
  6 37  1  0
  7 10  1  0
  8 35  1  0
  8 36  1  0
  8 38  2  0
  9 37  1  0
 10 13  1  0
 11 12  1  0
 12 15  1  0
 12 36  1  0
 13 14  2  0
 14 16  1  0
 14 37  1  0
 15 31  2  0
 15 39  1  0
 17 18  1  0
 17 39  1  0
 18 19  1  0
 18 32  1  0
 20 23  1  0
 20 24  1  0
 20 32  1  0
 21 22  2  0
 21 26  1  0
 22 27  1  0
 23 40  1  0
 24 28  1  0
 25 26  1  0
 25 41  1  0
 26 30  2  0
 27 29  2  0
 27 40  1  0
 28 40  1  0
 29 30  1  0
 38 39  1  0
M  END
$$$$

     RDKit          3D

 47 54  0  0  0  0  0  0  0  0999 V2000
  -31.0290    7.9750  -29.3752 C   0  0  0  0  0  0  0  0  0  0  0  0
  -30.7324    7.9036  -30.6992 C   0  0  0  0  0  0  0  0  0  0  0  0
  -30.0721    7.6197  -28.4417 C   0  0  0  0  0  0  0  0  0  0  0  0
  -29.7804    7.9577  -34.7494 C   0  0  0  0  0  0  0  0  0  0  0  0
  -29.4781    7.4545  -31.1169 C   0  0  0  0  0  0  0  0  0  0  0  0
  -29.1934    7.4291  -32.5210 C   0  0  0  0  0  0  0  0  0  0  0  0
  -28.8241    7.1508  -28.8530 C   0  0  0  0  0  0  0  0  0  0  0  0
  -28.6473    7.0478  -35.1721 C   0  0  0  0  0  0  0  0  0  0  0  0
  -28.5360    7.0711  -30.1803 C   0  0  0  0  0  0  0  0  0  0  0  0
  -27.9678    1.1895  -34.2192 C   0  0  0  0  0  0  0  0  0  0  0  0
  -27.8933    0.4071  -33.0800 C   0  0  0  0  0  0  0  0  0  0  0  0
  -27.6003    6.9501  -34.1764 C   0  0  0  0  0  0  0  0  0  0  0  0
  -26.8459    1.6918  -34.8437 C   0  0  0  0  0  0  0  0  0  0  0  0
  -26.6719   -0.1641  -32.7742 C   0  0  0  0  0  0  0  0  0  0  0  0
  -26.4580    4.5567  -32.5411 C   0  0  0  0  0  0  0  0  0  0  0  0
  -26.2361    6.3311  -34.4339 C   0  0  0  0  0  0  0  0  0  0  0  0
  -25.5599    0.2188  -33.5151 C   0  0  0  0  0  0  0  0  0  0  0  0
  -25.6276    1.2050  -34.4773 C   0  0  0  0  0  0  0  0  0  0  0  0
  -25.4164    3.6708  -31.9260 C   0  0  0  0  0  0  0  0  0  0  0  0
  -25.1926    2.7128  -30.8527 C   0  0  0  0  0  0  0  0  0  0  0  0
  -24.3236   -0.2576  -33.0152 C   0  0  0  0  0  0  0  0  0  0  0  0
  -24.3963    4.7752  -33.6254 C   0  0  0  0  0  0  0  0  0  0  0  0
  -23.8438    2.2697  -30.9367 C   0  0  0  0  0  0  0  0  0  0  0  0
  -23.3389    2.9498  -32.0579 C   0  0  0  0  0  0  0  0  0  0  0  0
  -23.1757   -0.9291  -31.0415 C   0  0  0  0  0  0  0  0  0  0  0  0
  -23.0765    1.4516  -29.9805 C   0  0  0  0  0  0  0  0  0  0  0  0
  -22.4921   -2.1130  -31.2096 C   0  0  0  0  0  0  0  0  0  0  0  0
  -22.6042    0.1066  -30.2147 C   0  0  0  0  0  0  0  0  0  0  0  0
  -22.0635    2.3480  -34.0433 C   0  0  0  0  0  0  0  0  0  0  0  0
  -22.0638    2.8184  -32.7119 C   0  0  0  0  0  0  0  0  0  0  0  0
  -21.4448   -0.2631  -29.5418 C   0  0  0  0  0  0  0  0  0  0  0  0
  -20.7971   -1.4575  -29.7238 C   0  0  0  0  0  0  0  0  0  0  0  0
  -20.8937    2.2998  -34.7404 C   0  0  0  0  0  0  0  0  0  0  0  0
  -20.8641    3.1901  -32.1041 C   0  0  0  0  0  0  0  0  0  0  0  0
  -19.7081    3.1466  -32.8266 C   0  0  0  0  0  0  0  0  0  0  0  0
  -19.7059    2.6665  -34.1016 C   0  0  0  0  0  0  0  0  0  0  0  0
  -26.0484    2.1755  -30.1092 O   0  0  0  0  0  0  0  0  0  0  0  0
  -19.1204   -2.9033  -29.2451 O   0  0  0  0  0  0  0  0  0  0  0  0
  -30.1885    7.6351  -33.4440 N   0  0  0  0  0  0  0  0  0  0  0  0
  -27.9299    7.1777  -32.8578 N   0  0  0  0  0  0  0  0  0  0  0  0
  -25.7620    5.2273  -33.6029 N   0  0  0  0  0  0  0  0  0  0  0  0
  -24.3648   -0.7546  -31.7460 N   0  0  0  0  0  0  0  0  0  0  0  0
  -24.2617    3.8009  -32.5795 N   0  0  0  0  0  0  0  0  0  0  0  0
  -21.3463   -2.3454  -30.5833 N   0  0  0  0  0  0  0  0  0  0  0  0
  -19.6934   -1.7985  -29.0389 N   0  0  0  0  0  0  0  0  0  0  0  0
  -26.0451   -1.0252  -31.3853 S   0  0  0  0  0  0  0  0  0  0  0  0
  -18.4914    2.4864  -34.7320 F   0  0  0  0  0  0  0  0  0  0  0  0
  1  2  2  0
  1  3  1  0
  2  5  1  0
  3  7  1  0
  4  8  1  0
  4 39  1  0
  5  6  1  0
  5  9  1  0
  6 39  1  0
  6 40  2  0
  7  9  2  0
  8 12  1  0
 10 11  1  0
 10 13  1  0
 11 14  1  0
 12 16  1  0
 12 40  1  0
 13 18  2  0
 14 17  2  0
 14 46  1  0
 15 19  1  0
 15 41  1  0
 16 41  1  0
 17 18  1  0
 17 21  1  0
 19 20  1  0
 19 43  1  0
 20 23  1  0
 20 37  2  0
 21 42  1  0
 22 41  1  0
 22 43  1  0
 23 24  2  0
 23 26  1  0
 24 30  1  0
 24 43  1  0
 25 27  1  0
 25 28  1  0
 25 42  1  0
 26 28  1  0
 27 44  2  0
 28 31  2  0
 29 30  2  0
 29 33  1  0
 30 34  1  0
 31 32  1  0
 32 44  1  0
 32 45  2  3
 33 36  2  0
 34 35  2  0
 35 36  1  0
 36 47  1  0
 38 45  1  0
 42 46  1  0
M  END
$$$$

     RDKit          3D

 56 57  0  0  0  0  0  0  0  0999 V2000
  -31.4281    0.4610  -34.5757 C   0  0  0  0  0  0  0  0  0  0  0  0
  -30.6825    8.4933  -33.9123 C   0  0  0  0  0  0  0  0  0  0  0  0
  -30.2592   -0.0917  -33.6802 C   0  0  0  0  0  0  0  0  0  0  0  0
  -30.4075    4.2842  -33.4699 C   0  0  0  0  0  0  0  0  0  0  0  0
  -30.0148    2.9733  -33.3155 C   0  0  0  0  0  0  0  0  0  0  0  0
  -29.6077   -1.3712  -34.3667 C   0  0  0  0  0  0  0  0  0  0  0  0
  -29.5007    6.4185  -34.5370 C   0  0  0  0  0  0  0  0  0  0  0  0
  -29.4366    5.4465  -33.3587 C   0  0  0  0  0  0  0  0  0  0  0  0
  -29.1297    0.8522  -33.9546 C   0  0  0  0  0  0  0  0  0  0  0  0
  -28.2433    7.2353  -34.7439 C   0  0  0  0  0  0  0  0  0  0  0  0
  -27.9432    0.9317  -33.0681 C   0  0  0  0  0  0  0  0  0  0  0  0
  -26.9341    6.4797  -34.8081 C   0  0  0  0  0  0  0  0  0  0  0  0
  -26.6608    8.6641  -33.8810 C   0  0  0  0  0  0  0  0  0  0  0  0
  -26.3300   -0.8542  -32.1670 C   0  0  0  0  0  0  0  0  0  0  0  0
  -26.3940    0.3862  -33.0533 C   0  0  0  0  0  0  0  0  0  0  0  0
  -25.8805    7.6379  -34.6568 C   0  0  0  0  0  0  0  0  0  0  0  0
  -24.7549   -0.0927  -34.7883 C   0  0  0  0  0  0  0  0  0  0  0  0
  -24.8853    0.6612  -33.4856 C   0  0  0  0  0  0  0  0  0  0  0  0
  -24.6251    1.1858  -34.9669 C   0  0  0  0  0  0  0  0  0  0  0  0
  -24.5509    7.2373  -33.9662 C   0  0  0  0  0  0  0  0  0  0  0  0
  -23.4662    0.2660  -31.4163 C   0  0  0  0  0  0  0  0  0  0  0  0
  -23.5654    6.4336  -36.0343 C   0  0  0  0  0  0  0  0  0  0  0  0
  -23.2993    1.6611  -35.2161 C   0  0  0  0  0  0  0  0  0  0  0  0
  -22.7762    4.2016  -29.2623 C   0  0  0  0  0  0  0  0  0  0  0  0
  -22.7706    4.5602  -27.8523 C   0  0  0  0  0  0  0  0  0  0  0  0
  -22.4182    4.5203  -33.6422 C   0  0  0  0  0  0  0  0  0  0  0  0
  -22.2234    7.0758  -34.1499 C   0  0  0  0  0  0  0  0  0  0  0  0
  -22.1824   -0.3949  -31.1951 C   0  0  0  0  0  0  0  0  0  0  0  0
  -22.0790    5.8912  -33.4235 C   0  0  0  0  0  0  0  0  0  0  0  0
  -21.6011   -0.3343  -29.7855 C   0  0  0  0  0  0  0  0  0  0  0  0
  -21.6088    3.4331  -29.6826 C   0  0  0  0  0  0  0  0  0  0  0  0
  -21.5575    3.6039  -32.9315 C   0  0  0  0  0  0  0  0  0  0  0  0
  -21.5624    4.2684  -26.9952 C   0  0  0  0  0  0  0  0  0  0  0  0
  -20.9506    3.2187  -24.8005 C   0  0  0  0  0  0  0  0  0  0  0  0
  -20.7135    4.1074  -31.9346 C   0  0  0  0  0  0  0  0  0  0  0  0
  -20.6379    3.8469  -30.6169 C   0  0  0  0  0  0  0  0  0  0  0  0
  -20.3436    0.7932  -25.6301 C   0  0  0  0  0  0  0  0  0  0  0  0
  -19.7832   -0.4415  -27.5067 C   0  0  0  0  0  0  0  0  0  0  0  0
  -19.5686    3.3701  -30.9167 C   0  0  0  0  0  0  0  0  0  0  0  0
  -19.2413   -0.4362  -28.9242 C   0  0  0  0  0  0  0  0  0  0  0  0
  -19.4057   -0.2878  -25.1477 C   0  0  0  0  0  0  0  0  0  0  0  0
  -18.8041   -0.8252  -26.4306 C   0  0  0  0  0  0  0  0  0  0  0  0
  -18.4781   -1.7632  -29.2314 C   0  0  0  0  0  0  0  0  0  0  0  0
  -30.6743    7.2177  -34.3950 O   0  0  0  0  0  0  0  0  0  0  0  0
  -29.5672    2.1573  -34.3451 O   0  0  0  0  0  0  0  0  0  0  0  0
  -28.0079    8.2330  -33.7899 O   0  0  0  0  0  0  0  0  0  0  0  0
  -24.5032    6.5087  -36.8254 O   0  0  0  0  0  0  0  0  0  0  0  0
  -24.1920    0.7147  -30.4978 O   0  0  0  0  0  0  0  0  0  0  0  0
  -23.8529    0.0825  -32.7246 O   0  0  0  0  0  0  0  0  0  0  0  0
  -22.1332   -1.3752  -29.0141 O   0  0  0  0  0  0  0  0  0  0  0  0
  -20.2903    0.8419  -27.0800 O   0  0  0  0  0  0  0  0  0  0  0  0
  -20.1999   -0.2507  -29.9776 O   0  0  0  0  0  0  0  0  0  0  0  0
  -19.6282    2.2197  -30.7419 O   0  0  0  0  0  0  0  0  0  0  0  0
  -18.2425   -2.0125  -26.4095 O   0  0  0  0  0  0  0  0  0  0  0  0
  -23.4583    7.0717  -34.8182 N   0  0  0  0  0  0  0  0  0  0  0  0
  -21.8792    3.4430  -25.8608 N   0  0  0  0  0  0  0  0  0  0  0  0
  1  3  1  0
  2 44  1  0
  3  6  1  0
  3  9  1  0
  4  5  1  0
  4  8  1  0
  5 45  1  0
  7  8  1  0
  7 10  1  0
  7 44  1  0
  9 11  1  0
  9 45  1  0
 10 12  1  0
 10 46  1  0
 11 15  1  0
 12 16  1  0
 13 16  1  0
 13 46  1  0
 14 15  1  0
 15 18  1  0
 16 20  1  0
 17 18  1  0
 17 19  1  0
 18 49  1  0
 19 23  1  0
 20 55  1  0
 21 28  1  0
 21 48  2  0
 21 49  1  0
 22 47  2  0
 22 55  1  0
 24 25  1  0
 24 31  1  0
 25 33  1  0
 26 29  1  0
 26 32  1  0
 27 29  1  0
 27 55  1  0
 28 30  1  0
 30 50  1  0
 30 52  1  0
 31 36  1  0
 32 35  1  0
 33 56  1  0
 34 56  1  0
 35 36  1  0
 36 39  1  0
 37 41  1  0
 37 51  1  0
 38 40  1  0
 38 42  1  0
 38 51  1  0
 39 53  1  0
 40 43  1  0
 40 52  1  0
 41 42  1  0
 42 54  1  0
M  END
$$$$

     RDKit          3D

 42 48  0  0  0  0  0  0  0  0999 V2000
  -31.6443    0.4448  -33.9745 C   0  0  0  0  0  0  0  0  0  0  0  0
  -31.5091    1.7788  -33.6896 C   0  0  0  0  0  0  0  0  0  0  0  0
  -30.5427   -0.4226  -33.8863 C   0  0  0  0  0  0  0  0  0  0  0  0
  -30.2509    2.3003  -33.3536 C   0  0  0  0  0  0  0  0  0  0  0  0
  -29.2860    0.0459  -33.5519 C   0  0  0  0  0  0  0  0  0  0  0  0
  -29.1406    1.4337  -33.2522 C   0  0  0  0  0  0  0  0  0  0  0  0
  -28.8667    4.2071  -32.9542 C   0  0  0  0  0  0  0  0  0  0  0  0
  -27.7267    3.3190  -32.7263 C   0  0  0  0  0  0  0  0  0  0  0  0
  -26.9360    1.0953  -32.6578 C   0  0  0  0  0  0  0  0  0  0  0  0
  -26.4484    3.8522  -32.4102 C   0  0  0  0  0  0  0  0  0  0  0  0
  -25.6338    1.5653  -32.3290 C   0  0  0  0  0  0  0  0  0  0  0  0
  -25.3234    2.9697  -32.2734 C   0  0  0  0  0  0  0  0  0  0  0  0
  -24.6329    0.6515  -32.1262 C   0  0  0  0  0  0  0  0  0  0  0  0
  -23.9389    3.3996  -32.1092 C   0  0  0  0  0  0  0  0  0  0  0  0
  -23.8776    5.5395  -33.3216 C   0  0  0  0  0  0  0  0  0  0  0  0
  -23.4689    4.8117  -32.2057 C   0  0  0  0  0  0  0  0  0  0  0  0
  -23.2987    1.1167  -32.0724 C   0  0  0  0  0  0  0  0  0  0  0  0
  -23.4271    6.8167  -33.6015 C   0  0  0  0  0  0  0  0  0  0  0  0
  -22.7866    5.4707  -28.7946 C   0  0  0  0  0  0  0  0  0  0  0  0
  -22.5864    4.8434  -27.5738 C   0  0  0  0  0  0  0  0  0  0  0  0
  -22.5417    7.4254  -32.7033 C   0  0  0  0  0  0  0  0  0  0  0  0
  -22.2678   -0.5839  -30.8120 C   0  0  0  0  0  0  0  0  0  0  0  0
  -22.2784    4.9050  -29.9659 C   0  0  0  0  0  0  0  0  0  0  0  0
  -22.1594    6.7259  -31.5508 C   0  0  0  0  0  0  0  0  0  0  0  0
  -21.8448    3.6922  -27.4666 C   0  0  0  0  0  0  0  0  0  0  0  0
  -21.6069   -2.9319  -30.9925 C   0  0  0  0  0  0  0  0  0  0  0  0
  -21.4789    3.7500  -29.8563 C   0  0  0  0  0  0  0  0  0  0  0  0
  -21.3114    3.1501  -28.6013 C   0  0  0  0  0  0  0  0  0  0  0  0
  -21.1984   -1.5982  -30.8342 C   0  0  0  0  0  0  0  0  0  0  0  0
  -20.6956   -3.9521  -30.6725 C   0  0  0  0  0  0  0  0  0  0  0  0
  -19.8954   -1.2766  -30.4476 C   0  0  0  0  0  0  0  0  0  0  0  0
  -19.6315    1.1323  -29.7750 C   0  0  0  0  0  0  0  0  0  0  0  0
  -19.4093   -3.6000  -30.2309 C   0  0  0  0  0  0  0  0  0  0  0  0
  -18.9878   -2.3014  -30.1158 C   0  0  0  0  0  0  0  0  0  0  0  0
  -28.7527    5.4420  -32.9986 O   0  0  0  0  0  0  0  0  0  0  0  0
  -19.4251    0.0153  -30.5445 O   0  0  0  0  0  0  0  0  0  0  0  0
  -30.1069    3.6519  -33.1353 N   0  0  0  0  0  0  0  0  0  0  0  0
  -27.9426    1.9531  -32.8592 N   0  0  0  0  0  0  0  0  0  0  0  0
  -23.0042    2.4524  -32.0350 N   0  0  0  0  0  0  0  0  0  0  0  0
  -22.6437    5.4454  -31.2480 N   0  0  0  0  0  0  0  0  0  0  0  0
  -22.3025    0.1847  -31.9867 N   0  0  0  0  0  0  0  0  0  0  0  0
  -25.0114   -0.9844  -32.1754 Cl  0  0  0  0  0  0  0  0  0  0  0  0
  1  2  2  0
  1  3  1  0
  2  4  1  0
  3  5  2  0
  4  6  2  0
  4 37  1  0
  5  6  1  0
  6 38  1  0
  7  8  1  0
  7 35  2  0
  7 37  1  0
  8 10  2  0
  8 38  1  0
  9 11  2  0
  9 38  1  0
 10 12  1  0
 11 12  1  0
 11 13  1  0
 12 14  1  0
 13 17  2  0
 13 42  1  0
 14 16  1  0
 14 39  2  0
 15 16  1  0
 15 18  2  0
 16 40  1  0
 17 39  1  0
 17 41  1  0
 18 21  1  0
 19 20  2  0
 19 23  1  0
 20 25  1  0
 21 24  2  0
 22 29  1  0
 22 41  1  0
 23 27  2  0
 23 40  1  0
 24 40  1  0
 25 28  2  0
 26 29  2  0
 26 30  1  0
 27 28  1  0
 29 31  1  0
 30 33  1  0
 31 34  1  0
 31 36  1  0
 32 36  1  0
 33 34  2  0
M  END
$$$$

     RDKit          3D

 43 49  0  0  0  0  0  0  0  0999 V2000
  -32.0511   -1.8138  -36.6497 C   0  0  0  0  0  0  0  0  0  0  0  0
  -32.1499   -0.5825  -35.9723 C   0  0  0  0  0  0  0  0  0  0  0  0
  -31.2238   -0.2716  -35.0041 C   0  0  0  0  0  0  0  0  0  0  0  0
  -30.9678   -2.6674  -36.3323 C   0  0  0  0  0  0  0  0  0  0  0  0
  -30.0378   -2.3089  -35.3321 C   0  0  0  0  0  0  0  0  0  0  0  0
  -30.1814   -1.0871  -34.6583 C   0  0  0  0  0  0  0  0  0  0  0  0
  -29.2484   -0.6450  -33.5116 C   0  0  0  0  0  0  0  0  0  0  0  0
  -28.0126    0.1922  -33.8322 C   0  0  0  0  0  0  0  0  0  0  0  0
  -26.5884    1.5630  -34.8290 C   0  0  0  0  0  0  0  0  0  0  0  0
  -25.9481    0.9810  -33.7311 C   0  0  0  0  0  0  0  0  0  0  0  0
  -25.8832    2.3305  -35.8279 C   0  0  0  0  0  0  0  0  0  0  0  0
  -24.5524    1.3149  -33.5643 C   0  0  0  0  0  0  0  0  0  0  0  0
  -24.4346    2.2727  -35.7073 C   0  0  0  0  0  0  0  0  0  0  0  0
  -23.9597    1.1763  -32.3002 C   0  0  0  0  0  0  0  0  0  0  0  0
  -23.8219    2.1291  -31.3781 C   0  0  0  0  0  0  0  0  0  0  0  0
  -23.3028    1.7465  -37.8264 C   0  0  0  0  0  0  0  0  0  0  0  0
  -23.4478    2.6091  -36.7566 C   0  0  0  0  0  0  0  0  0  0  0  0
  -23.1440    2.0006  -30.2312 C   0  0  0  0  0  0  0  0  0  0  0  0
  -22.5672    0.8027  -29.9700 C   0  0  0  0  0  0  0  0  0  0  0  0
  -22.0528   -1.3035  -30.1360 C   0  0  0  0  0  0  0  0  0  0  0  0
  -21.9691    4.3947  -25.9460 C   0  0  0  0  0  0  0  0  0  0  0  0
  -22.0378    5.4753  -26.8365 C   0  0  0  0  0  0  0  0  0  0  0  0
  -22.1696    6.6989  -26.3280 C   0  0  0  0  0  0  0  0  0  0  0  0
  -21.7487   -2.7035  -30.6588 C   0  0  0  0  0  0  0  0  0  0  0  0
  -21.8339    0.4444  -28.8348 C   0  0  0  0  0  0  0  0  0  0  0  0
  -21.5142    1.3864  -27.7598 C   0  0  0  0  0  0  0  0  0  0  0  0
  -21.5283    2.9057  -38.5765 C   0  0  0  0  0  0  0  0  0  0  0  0
  -21.6825    3.0988  -26.4366 C   0  0  0  0  0  0  0  0  0  0  0  0
  -21.4415    3.6018  -37.3649 C   0  0  0  0  0  0  0  0  0  0  0  0
  -20.6591    3.2340  -39.7558 C   0  0  0  0  0  0  0  0  0  0  0  0
  -20.0072    0.0399  -26.1802 C   0  0  0  0  0  0  0  0  0  0  0  0
  -22.2733    1.8943  -38.6297 O   0  0  0  0  0  0  0  0  0  0  0  0
  -27.8808    1.1074  -34.8235 N   0  0  0  0  0  0  0  0  0  0  0  0
  -26.8418    0.1620  -33.0966 N   0  0  0  0  0  0  0  0  0  0  0  0
  -23.9013    1.9048  -34.5402 N   0  0  0  0  0  0  0  0  0  0  0  0
  -22.6709   -0.2749  -30.7398 N   0  0  0  0  0  0  0  0  0  0  0  0
  -22.4119    3.4371  -36.4564 N   0  0  0  0  0  0  0  0  0  0  0  0
  -22.2904    6.9426  -25.0124 N   0  0  0  0  0  0  0  0  0  0  0  0
  -21.9867    2.6175  -27.6329 N   0  0  0  0  0  0  0  0  0  0  0  0
  -21.5447   -0.8245  -28.9488 N   0  0  0  0  0  0  0  0  0  0  0  0
  -20.9577    2.2139  -25.8153 N   0  0  0  0  0  0  0  0  0  0  0  0
  -20.8243    1.1690  -26.6214 N   0  0  0  0  0  0  0  0  0  0  0  0
  -23.4062   -0.1634  -32.1706 S   0  0  0  0  0  0  0  0  0  0  0  0
  1  2  2  0
  1  4  1  0
  2  3  1  0
  3  6  2  0
  4  5  2  0
  5  6  1  0
  6  7  1  0
  7  8  1  0
  8 33  2  0
  8 34  1  0
  9 10  2  0
  9 11  1  0
  9 33  1  0
 10 12  1  0
 10 34  1  0
 11 13  1  0
 12 14  1  0
 12 35  2  0
 13 17  1  0
 13 35  1  0
 14 15  2  0
 14 43  1  0
 15 18  1  0
 16 17  2  0
 16 32  1  0
 17 37  1  0
 18 19  1  0
 19 25  2  0
 19 36  1  0
 20 24  1  0
 20 36  1  0
 20 40  2  0
 21 22  1  0
 21 28  1  0
 22 23  2  3
 23 38  1  0
 25 26  1  0
 25 40  1  0
 26 39  2  0
 26 42  1  0
 27 29  1  0
 27 30  1  0
 27 32  1  0
 28 39  1  0
 28 41  1  0
 29 37  2  0
 31 42  1  0
 36 43  1  0
 41 42  1  0
M  END
$$$$

     RDKit          3D

 57 64  0  0  0  0  0  0  0  0999 V2000
  -31.8493    1.2406  -34.5482 C   0  0  0  0  0  0  0  0  0  0  0  0
  -30.7251    3.2137  -35.3542 C   0  0  0  0  0  0  0  0  0  0  0  0
  -30.4653    1.9376  -34.5695 C   0  0  0  0  0  0  0  0  0  0  0  0
  -29.4771    1.0527  -35.3677 C   0  0  0  0  0  0  0  0  0  0  0  0
  -29.0799    3.3215  -33.1183 C   0  0  0  0  0  0  0  0  0  0  0  0
  -28.6108    3.9999  -34.4042 C   0  0  0  0  0  0  0  0  0  0  0  0
  -28.2431   -0.9298  -32.6068 C   0  0  0  0  0  0  0  0  0  0  0  0
  -28.0296   -0.2205  -33.8070 C   0  0  0  0  0  0  0  0  0  0  0  0
  -28.0800    5.4182  -34.1169 C   0  0  0  0  0  0  0  0  0  0  0  0
  -27.2227   -1.2467  -31.7911 C   0  0  0  0  0  0  0  0  0  0  0  0
  -26.7715    0.2479  -34.1572 C   0  0  0  0  0  0  0  0  0  0  0  0
  -26.1386    6.7122  -33.5383 C   0  0  0  0  0  0  0  0  0  0  0  0
  -25.9273   -0.8190  -32.0994 C   0  0  0  0  0  0  0  0  0  0  0  0
  -25.6731   -0.0572  -33.2748 C   0  0  0  0  0  0  0  0  0  0  0  0
  -25.1443    4.1481  -30.4855 C   0  0  0  0  0  0  0  0  0  0  0  0
  -24.6977    6.9765  -33.8920 C   0  0  0  0  0  0  0  0  0  0  0  0
  -24.2630    6.0644  -36.3656 C   0  0  0  0  0  0  0  0  0  0  0  0
  -24.4282    7.2074  -35.3488 C   0  0  0  0  0  0  0  0  0  0  0  0
  -24.0076    6.1724  -31.5120 C   0  0  0  0  0  0  0  0  0  0  0  0
  -23.8197    4.6864  -31.0427 C   0  0  0  0  0  0  0  0  0  0  0  0
  -23.5298   -0.9124  -31.6216 C   0  0  0  0  0  0  0  0  0  0  0  0
  -23.5966    3.8433  -32.3372 C   0  0  0  0  0  0  0  0  0  0  0  0
  -23.6349    6.4302  -32.9204 C   0  0  0  0  0  0  0  0  0  0  0  0
  -22.8315    5.9993  -36.9076 C   0  0  0  0  0  0  0  0  0  0  0  0
  -22.3710    4.3692  -33.1276 C   0  0  0  0  0  0  0  0  0  0  0  0
  -22.3394    4.9898  -26.6540 C   0  0  0  0  0  0  0  0  0  0  0  0
  -22.0407    0.8273  -30.8856 C   0  0  0  0  0  0  0  0  0  0  0  0
  -22.1219    2.0887  -31.5816 C   0  0  0  0  0  0  0  0  0  0  0  0
  -22.0887    4.5888  -27.9532 C   0  0  0  0  0  0  0  0  0  0  0  0
  -21.2878    3.0819  -26.4329 C   0  0  0  0  0  0  0  0  0  0  0  0
  -21.3722    3.3990  -27.8180 C   0  0  0  0  0  0  0  0  0  0  0  0
  -20.9866    4.2337  -32.3525 C   0  0  0  0  0  0  0  0  0  0  0  0
  -20.7816    0.2927  -30.4984 C   0  0  0  0  0  0  0  0  0  0  0  0
  -20.8252    0.4649  -27.7479 C   0  0  0  0  0  0  0  0  0  0  0  0
  -20.9367    2.8592  -31.7687 C   0  0  0  0  0  0  0  0  0  0  0  0
  -20.4259   -0.7121  -28.3841 C   0  0  0  0  0  0  0  0  0  0  0  0
  -20.4413    0.7537  -26.4386 C   0  0  0  0  0  0  0  0  0  0  0  0
  -19.7155   -0.1659  -25.7057 C   0  0  0  0  0  0  0  0  0  0  0  0
  -19.6970   -1.6620  -27.6589 C   0  0  0  0  0  0  0  0  0  0  0  0
  -19.5947    1.0051  -30.7922 C   0  0  0  0  0  0  0  0  0  0  0  0
  -19.7009    2.2634  -31.4331 C   0  0  0  0  0  0  0  0  0  0  0  0
  -19.3030   -1.3840  -26.3249 C   0  0  0  0  0  0  0  0  0  0  0  0
  -32.3846    1.1423  -35.7373 O   0  0  0  0  0  0  0  0  0  0  0  0
  -32.1489    0.4156  -33.6858 O   0  0  0  0  0  0  0  0  0  0  0  0
  -29.8438    2.1193  -33.2726 O   0  0  0  0  0  0  0  0  0  0  0  0
  -29.6848    4.1910  -35.3425 O   0  0  0  0  0  0  0  0  0  0  0  0
  -26.7389    7.5655  -32.8632 O   0  0  0  0  0  0  0  0  0  0  0  0
  -24.9198   -1.2223  -31.2698 O   0  0  0  0  0  0  0  0  0  0  0  0
  -23.3552    2.4646  -31.9593 O   0  0  0  0  0  0  0  0  0  0  0  0
  -23.1980    0.1443  -30.6964 O   0  0  0  0  0  0  0  0  0  0  0  0
  -22.6220    5.7437  -33.3731 O   0  0  0  0  0  0  0  0  0  0  0  0
  -20.7459   -0.8776  -29.7488 O   0  0  0  0  0  0  0  0  0  0  0  0
  -29.1654   -0.0885  -34.6157 N   0  0  0  0  0  0  0  0  0  0  0  0
  -26.6882    5.5402  -34.0228 N   0  0  0  0  0  0  0  0  0  0  0  0
  -21.8832    4.0567  -25.6610 N   0  0  0  0  0  0  0  0  0  0  0  0
  -20.7025    1.9559  -25.8067 N   0  0  0  0  0  0  0  0  0  0  0  0
  -18.5521    3.0226  -31.5247 F   0  0  0  0  0  0  0  0  0  0  0  0
  1  3  1  0
  1 43  2  0
  1 44  1  0
  2  3  1  0
  2 46  1  0
  3  4  1  0
  3 45  1  0
  4 53  1  0
  5  6  1  0
  5 45  1  0
  6  9  1  0
  6 46  1  0
  7  8  2  0
  7 10  1  0
  8 11  1  0
  8 53  1  0
  9 54  2  3
 10 13  2  0
 11 14  2  0
 12 16  1  0
 12 47  2  0
 12 54  1  0
 13 14  1  0
 13 48  1  0
 15 20  1  0
 16 18  1  0
 16 23  1  0
 17 18  1  0
 17 24  1  0
 19 20  1  0
 19 23  1  0
 20 22  1  0
 21 48  1  0
 21 50  1  0
 22 25  1  0
 22 49  1  0
 23 51  1  0
 25 32  1  0
 25 51  1  0
 26 29  1  0
 26 55  1  0
 27 28  2  0
 27 33  1  0
 27 50  1  0
 28 35  1  0
 28 49  1  0
 29 31  1  0
 30 31  1  0
 30 55  2  0
 30 56  1  0
 32 35  1  0
 33 40  2  0
 33 52  1  0
 34 36  2  0
 34 37  1  0
 35 41  2  0
 36 39  1  0
 36 52  1  0
 37 38  1  0
 37 56  2  3
 38 42  2  0
 39 42  1  0
 40 41  1  0
 41 57  1  0
M  END
$$$$

     RDKit          3D

 45 51  0  0  0  0  0  0  0  0999 V2000
  -30.1959    2.3910  -33.3738 C   0  0  0  0  0  0  0  0  0  0  0  0
  -29.7826    1.0888  -33.5912 C   0  0  0  0  0  0  0  0  0  0  0  0
  -29.3184    3.3594  -32.8643 C   0  0  0  0  0  0  0  0  0  0  0  0
  -29.1385    3.4603  -38.1128 C   0  0  0  0  0  0  0  0  0  0  0  0
  -28.4917    0.7186  -33.2908 C   0  0  0  0  0  0  0  0  0  0  0  0
  -28.1605    3.1422  -37.1882 C   0  0  0  0  0  0  0  0  0  0  0  0
  -27.9783    2.9998  -32.6061 C   0  0  0  0  0  0  0  0  0  0  0  0
  -27.5605    1.6822  -32.8421 C   0  0  0  0  0  0  0  0  0  0  0  0
  -27.4876    4.6434  -39.3797 C   0  0  0  0  0  0  0  0  0  0  0  0
  -26.8592    3.5183  -37.4439 C   0  0  0  0  0  0  0  0  0  0  0  0
  -25.9746    0.8413  -31.2478 C   0  0  0  0  0  0  0  0  0  0  0  0
  -25.8403    3.0680  -36.5525 C   0  0  0  0  0  0  0  0  0  0  0  0
  -25.1612    1.2860  -33.5079 C   0  0  0  0  0  0  0  0  0  0  0  0
  -25.0735    2.0386  -34.8080 C   0  0  0  0  0  0  0  0  0  0  0  0
  -24.8222    0.1831  -30.9332 C   0  0  0  0  0  0  0  0  0  0  0  0
  -24.4728    3.1775  -36.6679 C   0  0  0  0  0  0  0  0  0  0  0  0
  -24.0400    0.4908  -33.1974 C   0  0  0  0  0  0  0  0  0  0  0  0
  -23.9831    2.4776  -35.5686 C   0  0  0  0  0  0  0  0  0  0  0  0
  -23.8890   -0.0628  -31.9454 C   0  0  0  0  0  0  0  0  0  0  0  0
  -22.5209    2.4321  -35.3968 C   0  0  0  0  0  0  0  0  0  0  0  0
  -22.5163    3.5187  -30.2530 C   0  0  0  0  0  0  0  0  0  0  0  0
  -22.2903    3.8095  -31.6033 C   0  0  0  0  0  0  0  0  0  0  0  0
  -21.9686    3.6633  -34.7319 C   0  0  0  0  0  0  0  0  0  0  0  0
  -21.8472    2.4385  -29.6273 C   0  0  0  0  0  0  0  0  0  0  0  0
  -21.3983    3.0013  -32.3429 C   0  0  0  0  0  0  0  0  0  0  0  0
  -21.1104    1.4012  -27.5920 C   0  0  0  0  0  0  0  0  0  0  0  0
  -21.0715    1.5629  -30.3781 C   0  0  0  0  0  0  0  0  0  0  0  0
  -21.0155    1.5622  -26.1830 C   0  0  0  0  0  0  0  0  0  0  0  0
  -20.8435    1.8717  -31.7462 C   0  0  0  0  0  0  0  0  0  0  0  0
  -20.9172    3.4196  -33.6977 C   0  0  0  0  0  0  0  0  0  0  0  0
  -20.3727    0.3958  -28.2377 C   0  0  0  0  0  0  0  0  0  0  0  0
  -20.3007    0.6959  -25.4085 C   0  0  0  0  0  0  0  0  0  0  0  0
  -19.6205   -0.5262  -27.4264 C   0  0  0  0  0  0  0  0  0  0  0  0
  -19.5838   -0.3107  -26.0204 C   0  0  0  0  0  0  0  0  0  0  0  0
  -18.8380   -1.1698  -25.0797 C   0  0  0  0  0  0  0  0  0  0  0  0
  -18.1793   -1.2587  -23.6494 C   0  0  0  0  0  0  0  0  0  0  0  0
  -21.8651    1.6455  -36.0118 O   0  0  0  0  0  0  0  0  0  0  0  0
  -21.6545    2.5617  -25.6063 O   0  0  0  0  0  0  0  0  0  0  0  0
  -28.7445    4.2641  -39.1618 N   0  0  0  0  0  0  0  0  0  0  0  0
  -26.5228    4.2486  -38.5244 N   0  0  0  0  0  0  0  0  0  0  0  0
  -26.2130    1.3150  -32.5799 N   0  0  0  0  0  0  0  0  0  0  0  0
  -26.1764    2.4317  -35.4280 N   0  0  0  0  0  0  0  0  0  0  0  0
  -21.8990    2.2946  -28.3004 N   0  0  0  0  0  0  0  0  0  0  0  0
  -20.4485    0.4132  -29.7261 N   0  0  0  0  0  0  0  0  0  0  0  0
  -27.9705   -0.8276  -33.6370 Cl  0  0  0  0  0  0  0  0  0  0  0  0
  1  2  2  0
  1  3  1  0
  2  5  1  0
  3  7  2  0
  4  6  2  0
  4 39  1  0
  5  8  2  0
  5 45  1  0
  6 10  1  0
  7  8  1  0
  8 41  1  0
  9 39  2  0
  9 40  1  0
 10 12  2  3
 10 40  1  0
 11 15  2  0
 11 41  1  0
 12 16  1  0
 12 42  1  0
 13 14  1  0
 13 17  1  0
 13 41  1  0
 14 18  2  0
 14 42  1  0
 15 19  1  0
 16 18  1  0
 17 19  2  0
 18 20  1  0
 20 23  1  0
 20 37  2  0
 21 22  1  0
 21 24  1  0
 22 25  2  0
 23 30  1  0
 24 27  1  0
 24 43  2  0
 25 29  1  0
 25 30  1  0
 26 28  2  0
 26 31  1  0
 26 43  1  0
 27 29  2  0
 27 44  1  0
 28 32  1  0
 28 38  1  0
 31 33  2  0
 31 44  1  0
 32 34  2  0
 33 34  1  0
 34 35  1  0
 35 36  1  0
M  END
$$$$

     RDKit          3D

 56 57  0  0  0  0  0  0  0  0999 V2000
  -32.4969   -1.3179  -36.4995 C   0  0  0  0  0  0  0  0  0  0  0  0
  -32.1326   -5.7882  -39.5209 C   0  0  0  0  0  0  0  0  0  0  0  0
  -32.0470   -3.8261  -37.5012 C   0  0  0  0  0  0  0  0  0  0  0  0
  -32.1601    0.3273  -34.7980 C   0  0  0  0  0  0  0  0  0  0  0  0
  -31.7625   -5.6150  -38.1313 C   0  0  0  0  0  0  0  0  0  0  0  0
  -31.2896   -1.9488  -36.1276 C   0  0  0  0  0  0  0  0  0  0  0  0
  -30.8972   -3.1962  -36.7930 C   0  0  0  0  0  0  0  0  0  0  0  0
  -30.8722   -0.1736  -34.5174 C   0  0  0  0  0  0  0  0  0  0  0  0
  -30.3890   -1.3040  -35.2429 C   0  0  0  0  0  0  0  0  0  0  0  0
  -28.6589    0.2863  -33.5170 C   0  0  0  0  0  0  0  0  0  0  0  0
  -28.1885   -0.7598  -32.6549 C   0  0  0  0  0  0  0  0  0  0  0  0
  -28.1239    2.1080  -35.3367 C   0  0  0  0  0  0  0  0  0  0  0  0
  -27.7081    1.1294  -34.2509 C   0  0  0  0  0  0  0  0  0  0  0  0
  -27.8698    4.4981  -34.5388 C   0  0  0  0  0  0  0  0  0  0  0  0
  -26.8519   -0.8876  -32.3790 C   0  0  0  0  0  0  0  0  0  0  0  0
  -26.3549    0.9119  -33.9798 C   0  0  0  0  0  0  0  0  0  0  0  0
  -26.3764    4.8317  -34.7063 C   0  0  0  0  0  0  0  0  0  0  0  0
  -25.9181   -0.0624  -33.0472 C   0  0  0  0  0  0  0  0  0  0  0  0
  -25.7763    5.4080  -33.4331 C   0  0  0  0  0  0  0  0  0  0  0  0
  -24.9934    7.5340  -34.6080 C   0  0  0  0  0  0  0  0  0  0  0  0
  -24.4950   -0.2435  -32.7294 C   0  0  0  0  0  0  0  0  0  0  0  0
  -24.6199    6.4748  -33.5657 C   0  0  0  0  0  0  0  0  0  0  0  0
  -24.4274    7.1866  -32.2069 C   0  0  0  0  0  0  0  0  0  0  0  0
  -23.9132    8.0268  -35.4715 C   0  0  0  0  0  0  0  0  0  0  0  0
  -23.2550    5.8175  -33.8599 C   0  0  0  0  0  0  0  0  0  0  0  0
  -22.9563    4.6561  -32.9705 C   0  0  0  0  0  0  0  0  0  0  0  0
  -22.5594   -0.3024  -31.2004 C   0  0  0  0  0  0  0  0  0  0  0  0
  -22.2176    3.5938  -33.6843 C   0  0  0  0  0  0  0  0  0  0  0  0
  -21.8328    1.7385  -30.3627 C   0  0  0  0  0  0  0  0  0  0  0  0
  -21.6196   -0.8523  -29.9024 C   0  0  0  0  0  0  0  0  0  0  0  0
  -21.4977    2.8603  -25.9496 C   0  0  0  0  0  0  0  0  0  0  0  0
  -21.3070    2.8844  -27.3117 C   0  0  0  0  0  0  0  0  0  0  0  0
  -21.1577    1.7877  -25.1796 C   0  0  0  0  0  0  0  0  0  0  0  0
  -20.7682    1.7545  -27.9614 C   0  0  0  0  0  0  0  0  0  0  0  0
  -20.7738    3.5833  -33.4539 C   0  0  0  0  0  0  0  0  0  0  0  0
  -20.4997    0.6357  -27.1664 C   0  0  0  0  0  0  0  0  0  0  0  0
  -20.6908    0.6291  -25.7882 C   0  0  0  0  0  0  0  0  0  0  0  0
  -20.5032    1.9029  -29.3879 C   0  0  0  0  0  0  0  0  0  0  0  0
  -20.4274    3.1081  -32.0711 C   0  0  0  0  0  0  0  0  0  0  0  0
  -19.9549   -3.5548  -30.3713 C   0  0  0  0  0  0  0  0  0  0  0  0
  -19.5939   -2.0803  -30.5848 C   0  0  0  0  0  0  0  0  0  0  0  0
  -18.8972    2.8995  -31.9281 C   0  0  0  0  0  0  0  0  0  0  0  0
  -31.8906   -4.2878  -38.6987 O   0  0  0  0  0  0  0  0  0  0  0  0
  -30.0553    0.4798  -33.5767 O   0  0  0  0  0  0  0  0  0  0  0  0
  -28.3151    3.4943  -35.4443 O   0  0  0  0  0  0  0  0  0  0  0  0
  -25.4461    1.6965  -34.6019 O   0  0  0  0  0  0  0  0  0  0  0  0
  -24.2726   -0.7827  -31.5128 O   0  0  0  0  0  0  0  0  0  0  0  0
  -23.2885    4.5393  -31.7937 O   0  0  0  0  0  0  0  0  0  0  0  0
  -22.7980    2.6713  -30.1242 O   0  0  0  0  0  0  0  0  0  0  0  0
  -22.9176    2.7028  -34.1566 O   0  0  0  0  0  0  0  0  0  0  0  0
  -22.1842   -1.5841  -29.0816 O   0  0  0  0  0  0  0  0  0  0  0  0
  -21.0506   -3.9868  -29.8901 O   0  0  0  0  0  0  0  0  0  0  0  0
  -20.3885   -1.0249  -30.2366 O   0  0  0  0  0  0  0  0  0  0  0  0
  -19.0131   -4.4529  -30.7124 O   0  0  0  0  0  0  0  0  0  0  0  0
  -22.3538    0.4327  -30.2276 N   0  0  0  0  0  0  0  0  0  0  0  0
  -21.2668    1.9273  -31.7427 N   0  0  0  0  0  0  0  0  0  0  0  0
  1  6  1  0
  2  5  1  0
  3  7  1  0
  3 43  1  0
  4  8  1  0
  5 43  1  0
  6  7  1  0
  6  9  1  0
  8  9  2  3
  8 44  1  0
 10 11  1  0
 10 13  1  0
 10 44  1  0
 11 15  2  0
 12 13  1  0
 12 45  1  0
 13 16  2  0
 14 17  1  0
 14 45  1  0
 15 18  1  0
 16 18  1  0
 16 46  1  0
 17 19  1  0
 18 21  1  0
 19 22  1  0
 20 22  1  0
 20 24  1  0
 21 47  1  0
 22 23  1  0
 22 25  1  0
 25 26  1  0
 26 28  1  0
 26 48  2  0
 27 55  1  0
 28 35  1  0
 28 50  2  0
 29 38  1  0
 29 49  1  0
 29 55  1  0
 29 56  1  0
 30 51  2  0
 30 53  1  0
 30 55  1  0
 31 32  2  0
 31 33  1  0
 32 34  1  0
 33 37  2  0
 34 36  2  0
 34 38  1  0
 35 39  1  0
 36 37  1  0
 39 42  1  0
 39 56  1  0
 40 41  1  0
 40 52  2  0
 40 54  1  0
 41 53  1  0
M  END
$$$$

     RDKit          3D

 42 47  0  0  0  0  0  0  0  0999 V2000
  -32.1718    3.3932  -33.6544 C   0  0  0  0  0  0  0  0  0  0  0  0
  -31.4509    0.1450  -33.7285 C   0  0  0  0  0  0  0  0  0  0  0  0
  -31.4480    1.8052  -33.9425 C   0  0  0  0  0  0  0  0  0  0  0  0
  -30.9708    4.2037  -33.1083 C   0  0  0  0  0  0  0  0  0  0  0  0
  -30.0750   -0.2417  -33.2711 C   0  0  0  0  0  0  0  0  0  0  0  0
  -29.7368    3.2897  -33.0769 C   0  0  0  0  0  0  0  0  0  0  0  0
  -29.1774    0.9273  -33.7449 C   0  0  0  0  0  0  0  0  0  0  0  0
  -26.7520    0.5025  -33.2114 C   0  0  0  0  0  0  0  0  0  0  0  0
  -25.5182    1.1959  -32.7154 C   0  0  0  0  0  0  0  0  0  0  0  0
  -25.3740    2.5999  -32.8788 C   0  0  0  0  0  0  0  0  0  0  0  0
  -24.4812   -0.9394  -31.8708 C   0  0  0  0  0  0  0  0  0  0  0  0
  -24.4383    0.4605  -32.0937 C   0  0  0  0  0  0  0  0  0  0  0  0
  -24.2261    3.2859  -32.4527 C   0  0  0  0  0  0  0  0  0  0  0  0
  -23.3734   -1.5723  -31.3794 C   0  0  0  0  0  0  0  0  0  0  0  0
  -23.2431    1.1740  -31.7058 C   0  0  0  0  0  0  0  0  0  0  0  0
  -23.1971    2.5814  -31.8253 C   0  0  0  0  0  0  0  0  0  0  0  0
  -22.7750    5.1303  -29.8375 C   0  0  0  0  0  0  0  0  0  0  0  0
  -22.9040    5.8324  -28.6284 C   0  0  0  0  0  0  0  0  0  0  0  0
  -22.6964    5.1429  -27.4445 C   0  0  0  0  0  0  0  0  0  0  0  0
  -22.3410    3.8083  -29.8936 C   0  0  0  0  0  0  0  0  0  0  0  0
  -22.2755    3.7918  -27.4579 C   0  0  0  0  0  0  0  0  0  0  0  0
  -22.2082   -0.8650  -31.1351 C   0  0  0  0  0  0  0  0  0  0  0  0
  -22.1895    3.1333  -28.6946 C   0  0  0  0  0  0  0  0  0  0  0  0
  -21.7089    2.9119  -35.7559 C   0  0  0  0  0  0  0  0  0  0  0  0
  -21.2448   -3.0569  -30.6017 C   0  0  0  0  0  0  0  0  0  0  0  0
  -21.0391   -1.6979  -30.8321 C   0  0  0  0  0  0  0  0  0  0  0  0
  -20.7544    3.2419  -33.1556 C   0  0  0  0  0  0  0  0  0  0  0  0
  -20.8799    3.5665  -31.8751 C   0  0  0  0  0  0  0  0  0  0  0  0
  -20.1818   -3.8758  -30.3431 C   0  0  0  0  0  0  0  0  0  0  0  0
  -19.9591    2.8494  -34.1852 C   0  0  0  0  0  0  0  0  0  0  0  0
  -19.7745   -1.1642  -30.8004 C   0  0  0  0  0  0  0  0  0  0  0  0
  -18.8926   -3.3730  -30.3102 C   0  0  0  0  0  0  0  0  0  0  0  0
  -18.6917   -2.0314  -30.5797 C   0  0  0  0  0  0  0  0  0  0  0  0
  -18.4861    2.5531  -33.9437 C   0  0  0  0  0  0  0  0  0  0  0  0
  -30.4647    4.9403  -34.1415 O   0  0  0  0  0  0  0  0  0  0  0  0
  -26.6563   -0.4825  -33.9351 O   0  0  0  0  0  0  0  0  0  0  0  0
  -30.0172    2.1077  -33.7771 N   0  0  0  0  0  0  0  0  0  0  0  0
  -27.9526    1.0197  -32.9267 N   0  0  0  0  0  0  0  0  0  0  0  0
  -22.1654    0.4667  -31.2464 N   0  0  0  0  0  0  0  0  0  0  0  0
  -22.0850    3.1840  -31.1703 N   0  0  0  0  0  0  0  0  0  0  0  0
  -20.4609    2.6106  -35.4334 N   0  0  0  0  0  0  0  0  0  0  0  0
  -20.3765   -5.2308  -30.0237 F   0  0  0  0  0  0  0  0  0  0  0  0
  1  3  1  0
  1  4  1  0
  2  3  1  0
  2  5  1  0
  3 37  1  0
  4  6  1  0
  4 35  1  0
  5  7  1  0
  6 37  1  0
  7 37  1  0
  7 38  1  0
  8  9  1  0
  8 36  2  0
  8 38  1  0
  9 10  2  0
  9 12  1  0
 10 13  1  0
 11 12  2  0
 11 14  1  0
 12 15  1  0
 13 16  2  0
 14 22  2  0
 15 16  1  0
 15 39  2  0
 16 40  1  0
 17 18  1  0
 17 20  1  0
 18 19  2  0
 19 21  1  0
 20 23  2  0
 20 40  1  0
 21 23  1  0
 22 26  1  0
 22 39  1  0
 24 41  2  0
 25 26  2  0
 25 29  1  0
 26 31  1  0
 27 28  1  0
 27 30  2  3
 28 40  1  0
 29 32  2  0
 29 42  1  0
 30 34  1  0
 30 41  1  0
 31 33  2  0
 32 33  1  0
M  END
$$$$

     RDKit          3D

 42 48  0  0  0  0  0  0  0  0999 V2000
  -31.6426   -0.5048  -36.5585 C   0  0  0  0  0  0  0  0  0  0  0  0
  -31.3071   -1.8228  -36.7841 C   0  0  0  0  0  0  0  0  0  0  0  0
  -31.1434    0.1836  -35.4674 C   0  0  0  0  0  0  0  0  0  0  0  0
  -30.4422   -2.4712  -35.8781 C   0  0  0  0  0  0  0  0  0  0  0  0
  -30.2545   -0.4207  -34.5940 C   0  0  0  0  0  0  0  0  0  0  0  0
  -29.9131   -1.7631  -34.7833 C   0  0  0  0  0  0  0  0  0  0  0  0
  -29.6769    0.4081  -33.4635 C   0  0  0  0  0  0  0  0  0  0  0  0
  -29.0702    1.7414  -33.8517 C   0  0  0  0  0  0  0  0  0  0  0  0
  -29.0720    2.9457  -36.6887 C   0  0  0  0  0  0  0  0  0  0  0  0
  -27.8963    2.4574  -35.9584 C   0  0  0  0  0  0  0  0  0  0  0  0
  -26.5350    1.6542  -34.4108 C   0  0  0  0  0  0  0  0  0  0  0  0
  -26.6287    2.4741  -36.4790 C   0  0  0  0  0  0  0  0  0  0  0  0
  -25.9002    1.2749  -33.2340 C   0  0  0  0  0  0  0  0  0  0  0  0
  -25.7380    2.0395  -35.4884 C   0  0  0  0  0  0  0  0  0  0  0  0
  -24.4586    1.3339  -33.1453 C   0  0  0  0  0  0  0  0  0  0  0  0
  -24.3363    2.0610  -35.4290 C   0  0  0  0  0  0  0  0  0  0  0  0
  -23.6817    1.0908  -31.9235 C   0  0  0  0  0  0  0  0  0  0  0  0
  -23.5732    2.4631  -36.5984 C   0  0  0  0  0  0  0  0  0  0  0  0
  -23.6004    3.7887  -37.0797 C   0  0  0  0  0  0  0  0  0  0  0  0
  -22.8261    1.5061  -37.3372 C   0  0  0  0  0  0  0  0  0  0  0  0
  -22.7318    1.7172  -29.8554 C   0  0  0  0  0  0  0  0  0  0  0  0
  -22.9499    4.1794  -38.2394 C   0  0  0  0  0  0  0  0  0  0  0  0
  -22.5894    2.6194  -28.7968 C   0  0  0  0  0  0  0  0  0  0  0  0
  -22.2626    3.1985  -38.9714 C   0  0  0  0  0  0  0  0  0  0  0  0
  -22.2633    4.2657  -26.2555 C   0  0  0  0  0  0  0  0  0  0  0  0
  -22.1117   -0.4082  -30.9233 C   0  0  0  0  0  0  0  0  0  0  0  0
  -22.0044    0.5433  -29.8426 C   0  0  0  0  0  0  0  0  0  0  0  0
  -22.1890    1.8922  -38.5243 C   0  0  0  0  0  0  0  0  0  0  0  0
  -21.7409    4.6274  -24.8073 C   0  0  0  0  0  0  0  0  0  0  0  0
  -21.6953    2.3003  -27.7618 C   0  0  0  0  0  0  0  0  0  0  0  0
  -21.2264    0.1760  -28.7375 C   0  0  0  0  0  0  0  0  0  0  0  0
  -21.4179    3.2074  -26.6725 C   0  0  0  0  0  0  0  0  0  0  0  0
  -21.0097    1.0693  -27.7558 C   0  0  0  0  0  0  0  0  0  0  0  0
  -20.5784   -1.1900  -28.7409 C   0  0  0  0  0  0  0  0  0  0  0  0
  -20.3412    4.0265  -24.8090 C   0  0  0  0  0  0  0  0  0  0  0  0
  -19.2478   -1.2350  -29.4570 C   0  0  0  0  0  0  0  0  0  0  0  0
  -26.6057    0.9451  -32.1991 O   0  0  0  0  0  0  0  0  0  0  0  0
  -27.8979    1.8517  -34.7289 N   0  0  0  0  0  0  0  0  0  0  0  0
  -23.7380    1.6781  -34.2856 N   0  0  0  0  0  0  0  0  0  0  0  0
  -23.5928    1.9907  -30.9249 N   0  0  0  0  0  0  0  0  0  0  0  0
  -22.9279   -0.0042  -31.9180 N   0  0  0  0  0  0  0  0  0  0  0  0
  -20.2735    3.1647  -25.9387 N   0  0  0  0  0  0  0  0  0  0  0  0
  1  2  2  0
  1  3  1  0
  2  4  1  0
  3  5  2  0
  4  6  2  0
  5  6  1  0
  5  7  1  0
  7  8  1  0
  8 38  1  0
  9 10  1  0
 10 12  1  0
 10 38  1  0
 11 13  2  0
 11 14  1  0
 11 38  1  0
 12 14  1  0
 13 15  1  0
 13 37  1  0
 14 16  1  0
 15 17  1  0
 15 39  1  0
 16 18  1  0
 16 39  2  0
 17 40  1  0
 17 41  2  0
 18 19  2  0
 18 20  1  0
 19 22  1  0
 20 28  2  0
 21 23  2  0
 21 27  1  0
 21 40  1  0
 22 24  2  0
 23 30  1  0
 24 28  1  0
 25 29  1  0
 25 32  1  0
 26 27  1  0
 26 41  1  0
 27 31  2  0
 29 35  1  0
 30 32  1  0
 30 33  2  0
 31 33  1  0
 31 34  1  0
 32 42  1  0
 34 36  1  0
 35 42  1  0
M  END
$$$$

     RDKit          3D

 47 52  0  0  0  0  0  0  0  0999 V2000
  -31.7880   -0.7540  -36.3884 C   0  0  0  0  0  0  0  0  0  0  0  0
  -31.2568    1.5283  -36.3890 C   0  0  0  0  0  0  0  0  0  0  0  0
  -30.0952    2.1754  -37.1393 C   0  0  0  0  0  0  0  0  0  0  0  0
  -29.9247   -0.0268  -34.8699 C   0  0  0  0  0  0  0  0  0  0  0  0
  -29.5752   -1.3609  -34.5905 C   0  0  0  0  0  0  0  0  0  0  0  0
  -29.2072    1.0044  -34.2188 C   0  0  0  0  0  0  0  0  0  0  0  0
  -28.5796   -1.6426  -33.6264 C   0  0  0  0  0  0  0  0  0  0  0  0
  -28.2099    0.7078  -33.2784 C   0  0  0  0  0  0  0  0  0  0  0  0
  -27.9084   -0.6184  -32.9683 C   0  0  0  0  0  0  0  0  0  0  0  0
  -25.7035   -0.3666  -31.9266 C   0  0  0  0  0  0  0  0  0  0  0  0
  -23.9735    0.9154  -32.2779 C   0  0  0  0  0  0  0  0  0  0  0  0
  -23.9408    4.4260  -38.5047 C   0  0  0  0  0  0  0  0  0  0  0  0
  -23.9550    5.2363  -37.2401 C   0  0  0  0  0  0  0  0  0  0  0  0
  -23.5793    0.0571  -31.1453 C   0  0  0  0  0  0  0  0  0  0  0  0
  -23.4726    2.9812  -38.2301 C   0  0  0  0  0  0  0  0  0  0  0  0
  -23.4904    3.2396  -33.2451 C   0  0  0  0  0  0  0  0  0  0  0  0
  -23.0841    2.0389  -32.6006 C   0  0  0  0  0  0  0  0  0  0  0  0
  -22.9586    3.0813  -36.7755 C   0  0  0  0  0  0  0  0  0  0  0  0
  -22.9317    4.9427  -34.9829 C   0  0  0  0  0  0  0  0  0  0  0  0
  -22.7515    5.6745  -27.5686 C   0  0  0  0  0  0  0  0  0  0  0  0
  -22.5648    4.9817  -26.3760 C   0  0  0  0  0  0  0  0  0  0  0  0
  -22.2458    5.2049  -28.7982 C   0  0  0  0  0  0  0  0  0  0  0  0
  -21.9252    3.7470  -26.4058 C   0  0  0  0  0  0  0  0  0  0  0  0
  -21.5103    4.0121  -28.8047 C   0  0  0  0  0  0  0  0  0  0  0  0
  -21.4232    3.2229  -27.6191 C   0  0  0  0  0  0  0  0  0  0  0  0
  -21.2199    4.1476  -33.3573 C   0  0  0  0  0  0  0  0  0  0  0  0
  -20.4893    2.8064  -33.2653 C   0  0  0  0  0  0  0  0  0  0  0  0
  -20.3430    1.5514  -28.8559 C   0  0  0  0  0  0  0  0  0  0  0  0
  -20.2979    2.4252  -29.9653 C   0  0  0  0  0  0  0  0  0  0  0  0
  -19.8641    0.2384  -28.9401 C   0  0  0  0  0  0  0  0  0  0  0  0
  -19.6418    1.9797  -31.1480 C   0  0  0  0  0  0  0  0  0  0  0  0
  -19.2532   -0.1731  -30.1122 C   0  0  0  0  0  0  0  0  0  0  0  0
  -19.1856    0.6679  -31.2388 C   0  0  0  0  0  0  0  0  0  0  0  0
  -32.8465   -1.1140  -35.6742 O   0  0  0  0  0  0  0  0  0  0  0  0
  -32.4374    1.9903  -36.6089 O   0  0  0  0  0  0  0  0  0  0  0  0
  -31.5015   -1.2683  -37.4825 O   0  0  0  0  0  0  0  0  0  0  0  0
  -24.7242    3.3959  -33.3761 O   0  0  0  0  0  0  0  0  0  0  0  0
  -22.7540    6.1651  -34.8098 O   0  0  0  0  0  0  0  0  0  0  0  0
  -20.8830    3.6533  -29.9952 O   0  0  0  0  0  0  0  0  0  0  0  0
  -19.4943    2.8343  -32.2084 O   0  0  0  0  0  0  0  0  0  0  0  0
  -30.9527    0.2668  -35.7938 N   0  0  0  0  0  0  0  0  0  0  0  0
  -26.9038   -0.9717  -32.0487 N   0  0  0  0  0  0  0  0  0  0  0  0
  -25.2263    0.6842  -32.6345 N   0  0  0  0  0  0  0  0  0  0  0  0
  -24.7348   -0.8298  -31.0975 N   0  0  0  0  0  0  0  0  0  0  0  0
  -23.5064    4.3653  -36.1698 N   0  0  0  0  0  0  0  0  0  0  0  0
  -22.5651    4.0574  -33.8979 N   0  0  0  0  0  0  0  0  0  0  0  0
  -20.8764    1.9834  -27.6726 N   0  0  0  0  0  0  0  0  0  0  0  0
  1 34  2  0
  1 36  1  0
  1 41  1  0
  2  3  1  0
  2 35  2  0
  2 41  1  0
  4  5  2  0
  4  6  1  0
  4 41  1  0
  5  7  1  0
  6  8  2  0
  7  9  2  0
  8  9  1  0
  9 42  1  0
 10 42  2  3
 10 43  1  0
 10 44  1  0
 11 14  1  0
 11 17  1  0
 11 43  1  0
 12 13  1  0
 12 15  1  0
 13 45  1  0
 14 44  1  0
 15 18  1  0
 16 17  1  0
 16 37  2  0
 16 46  1  0
 18 45  1  0
 19 38  2  0
 19 45  1  0
 19 46  1  0
 20 21  1  0
 20 22  2  0
 21 23  2  0
 22 24  1  0
 23 25  1  0
 24 25  1  0
 24 39  1  0
 25 47  2  0
 26 27  1  0
 26 46  1  0
 27 40  1  0
 28 29  2  0
 28 30  1  0
 28 47  1  0
 29 31  1  0
 29 39  1  0
 30 32  2  0
 31 33  2  0
 31 40  1  0
 32 33  1  0
M  END
$$$$

     RDKit          3D

 52 56  0  0  0  0  0  0  0  0999 V2000
  -32.5136    1.8766  -37.6216 C   0  0  0  0  0  0  0  0  0  0  0  0
  -31.9518    0.2279  -35.3480 C   0  0  0  0  0  0  0  0  0  0  0  0
  -30.8423    0.6917  -36.3110 C   0  0  0  0  0  0  0  0  0  0  0  0
  -29.6120    0.8591  -35.4000 C   0  0  0  0  0  0  0  0  0  0  0  0
  -28.4649   -1.1623  -32.4949 C   0  0  0  0  0  0  0  0  0  0  0  0
  -28.2822   -0.3977  -33.6553 C   0  0  0  0  0  0  0  0  0  0  0  0
  -27.4471   -1.3376  -31.5613 C   0  0  0  0  0  0  0  0  0  0  0  0
  -27.0544    0.1990  -33.8664 C   0  0  0  0  0  0  0  0  0  0  0  0
  -26.5435    4.0240  -32.0461 C   0  0  0  0  0  0  0  0  0  0  0  0
  -26.3930    4.2054  -30.6739 C   0  0  0  0  0  0  0  0  0  0  0  0
  -26.2036   -0.7774  -31.8141 C   0  0  0  0  0  0  0  0  0  0  0  0
  -26.0288   -0.0007  -32.9433 C   0  0  0  0  0  0  0  0  0  0  0  0
  -25.5874    3.4511  -34.3038 C   0  0  0  0  0  0  0  0  0  0  0  0
  -25.4396    3.8139  -32.8021 C   0  0  0  0  0  0  0  0  0  0  0  0
  -25.1572    4.2469  -30.0656 C   0  0  0  0  0  0  0  0  0  0  0  0
  -24.1723    3.8231  -32.2256 C   0  0  0  0  0  0  0  0  0  0  0  0
  -24.0040    4.0905  -30.7995 C   0  0  0  0  0  0  0  0  0  0  0  0
  -23.9448   -0.5759  -31.3328 C   0  0  0  0  0  0  0  0  0  0  0  0
  -22.7939   -0.9099  -30.4457 C   0  0  0  0  0  0  0  0  0  0  0  0
  -22.8038    5.4476  -27.9070 C   0  0  0  0  0  0  0  0  0  0  0  0
  -22.4949   -2.3543  -30.4681 C   0  0  0  0  0  0  0  0  0  0  0  0
  -22.6214    4.2171  -30.1331 C   0  0  0  0  0  0  0  0  0  0  0  0
  -22.6734    5.5718  -26.5174 C   0  0  0  0  0  0  0  0  0  0  0  0
  -22.4509    4.2933  -28.5842 C   0  0  0  0  0  0  0  0  0  0  0  0
  -22.0847    1.2117  -31.4888 C   0  0  0  0  0  0  0  0  0  0  0  0
  -22.1841    4.5011  -25.7267 C   0  0  0  0  0  0  0  0  0  0  0  0
  -22.0023    5.3566  -35.4644 C   0  0  0  0  0  0  0  0  0  0  0  0
  -21.9512    3.2041  -27.7967 C   0  0  0  0  0  0  0  0  0  0  0  0
  -21.7973    3.3222  -26.3587 C   0  0  0  0  0  0  0  0  0  0  0  0
  -21.7105    3.8591  -35.3009 C   0  0  0  0  0  0  0  0  0  0  0  0
  -21.6878    0.0459  -30.7679 C   0  0  0  0  0  0  0  0  0  0  0  0
  -21.1041    2.1307  -31.8459 C   0  0  0  0  0  0  0  0  0  0  0  0
  -21.0985    3.3731  -36.6480 C   0  0  0  0  0  0  0  0  0  0  0  0
  -20.9448    0.5068  -27.2497 C   0  0  0  0  0  0  0  0  0  0  0  0
  -20.7139    1.0904  -25.9890 C   0  0  0  0  0  0  0  0  0  0  0  0
  -20.7386    3.6860  -34.0948 C   0  0  0  0  0  0  0  0  0  0  0  0
  -20.4195   -0.0706  -30.1777 C   0  0  0  0  0  0  0  0  0  0  0  0
  -20.1255   -0.5058  -27.7376 C   0  0  0  0  0  0  0  0  0  0  0  0
  -19.7811    0.4629  -25.1636 C   0  0  0  0  0  0  0  0  0  0  0  0
  -19.7873    1.8634  -31.5379 C   0  0  0  0  0  0  0  0  0  0  0  0
  -19.4460    0.7670  -30.7220 C   0  0  0  0  0  0  0  0  0  0  0  0
  -19.1409   -1.0124  -26.8794 C   0  0  0  0  0  0  0  0  0  0  0  0
  -29.3733   -0.2713  -34.5696 O   0  0  0  0  0  0  0  0  0  0  0  0
  -25.1668   -1.0084  -30.8939 O   0  0  0  0  0  0  0  0  0  0  0  0
  -20.2104   -0.9459  -29.1197 O   0  0  0  0  0  0  0  0  0  0  0  0
  -31.2718    1.9700  -36.8671 N   0  0  0  0  0  0  0  0  0  0  0  0
  -23.0891    3.6782  -33.0344 N   0  0  0  0  0  0  0  0  0  0  0  0
  -21.5841    4.4537  -30.9512 N   0  0  0  0  0  0  0  0  0  0  0  0
  -21.3452    2.2595  -25.5173 N   0  0  0  0  0  0  0  0  0  0  0  0
  -18.9572   -0.4875  -25.6410 N   0  0  0  0  0  0  0  0  0  0  0  0
  -21.5326    3.6328  -32.5225 S   0  0  0  0  0  0  0  0  0  0  0  0
  -18.8474    2.6394  -32.0335 F   0  0  0  0  0  0  0  0  0  0  0  0
  1 46  1  0
  2  3  1  0
  3  4  1  0
  3 46  1  0
  4 43  1  0
  5  6  2  0
  5  7  1  0
  6  8  1  0
  6 43  1  0
  7 11  2  0
  8 12  2  0
  9 10  1  0
  9 14  2  0
 10 15  1  0
 11 12  1  0
 11 44  1  0
 13 14  1  0
 14 16  1  0
 15 17  2  0
 16 17  1  0
 16 47  2  3
 17 22  1  0
 18 19  1  0
 18 44  1  0
 19 21  1  0
 19 31  1  0
 20 23  1  0
 20 24  2  0
 22 24  1  0
 22 48  1  0
 23 26  1  0
 24 28  1  0
 25 31  2  0
 25 32  1  0
 26 29  2  0
 27 30  1  0
 28 29  1  0
 29 49  1  0
 30 33  1  0
 30 36  1  0
 31 37  1  0
 32 40  2  0
 34 35  2  0
 34 38  1  0
 35 39  1  0
 35 49  1  0
 36 51  1  0
 37 41  1  0
 37 45  1  0
 38 42  2  0
 38 45  1  0
 39 50  2  0
 40 41  1  0
 40 52  1  0
 42 50  1  0
 47 51  1  0
M  END
$$$$

     RDKit          3D

 40 46  0  0  0  0  0  0  0  0999 V2000
  -30.1821    0.6724  -36.4428 C   0  0  0  0  0  0  0  0  0  0  0  0
  -29.7635   -1.0485  -34.6884 C   0  0  0  0  0  0  0  0  0  0  0  0
  -29.8959    1.9205  -36.9357 C   0  0  0  0  0  0  0  0  0  0  0  0
  -29.9521    5.3648  -32.2734 C   0  0  0  0  0  0  0  0  0  0  0  0
  -29.5558    0.2265  -35.2298 C   0  0  0  0  0  0  0  0  0  0  0  0
  -29.6290    4.4090  -33.2095 C   0  0  0  0  0  0  0  0  0  0  0  0
  -29.0542   -1.3731  -33.5576 C   0  0  0  0  0  0  0  0  0  0  0  0
  -29.0385    2.7916  -36.2747 C   0  0  0  0  0  0  0  0  0  0  0  0
  -28.9693    6.0328  -31.5336 C   0  0  0  0  0  0  0  0  0  0  0  0
  -28.7633    1.1572  -34.5311 C   0  0  0  0  0  0  0  0  0  0  0  0
  -28.5033    2.4224  -35.0695 C   0  0  0  0  0  0  0  0  0  0  0  0
  -28.6346    4.1081  -36.8522 C   0  0  0  0  0  0  0  0  0  0  0  0
  -28.3164   -0.4790  -32.8506 C   0  0  0  0  0  0  0  0  0  0  0  0
  -28.2619    4.1482  -33.4010 C   0  0  0  0  0  0  0  0  0  0  0  0
  -28.1876    0.7784  -33.3176 C   0  0  0  0  0  0  0  0  0  0  0  0
  -27.6126    5.7772  -31.7761 C   0  0  0  0  0  0  0  0  0  0  0  0
  -27.2795    4.7853  -32.6644 C   0  0  0  0  0  0  0  0  0  0  0  0
  -26.2841    3.3170  -34.1017 C   0  0  0  0  0  0  0  0  0  0  0  0
  -25.9931    4.3365  -33.1060 C   0  0  0  0  0  0  0  0  0  0  0  0
  -23.7964    3.7355  -30.7502 C   0  0  0  0  0  0  0  0  0  0  0  0
  -23.6400    4.3484  -32.1468 C   0  0  0  0  0  0  0  0  0  0  0  0
  -22.5228    1.6582  -30.7697 C   0  0  0  0  0  0  0  0  0  0  0  0
  -22.3908    5.2206  -32.1921 C   0  0  0  0  0  0  0  0  0  0  0  0
  -21.2272    0.9634  -30.7398 C   0  0  0  0  0  0  0  0  0  0  0  0
  -21.3354    3.7900  -30.4148 C   0  0  0  0  0  0  0  0  0  0  0  0
  -21.1206   -0.3810  -31.1262 C   0  0  0  0  0  0  0  0  0  0  0  0
  -21.1358    4.4101  -31.8116 C   0  0  0  0  0  0  0  0  0  0  0  0
  -20.1127    1.6417  -30.2310 C   0  0  0  0  0  0  0  0  0  0  0  0
  -19.9304   -1.0787  -30.8917 C   0  0  0  0  0  0  0  0  0  0  0  0
  -19.5980   -4.8384  -30.9215 C   0  0  0  0  0  0  0  0  0  0  0  0
  -19.5286   -3.4174  -30.3841 C   0  0  0  0  0  0  0  0  0  0  0  0
  -18.8291   -0.4226  -30.3516 C   0  0  0  0  0  0  0  0  0  0  0  0
  -18.9490    0.9141  -30.0075 C   0  0  0  0  0  0  0  0  0  0  0  0
  -23.5555    1.0242  -30.9730 O   0  0  0  0  0  0  0  0  0  0  0  0
  -20.1424    3.0381  -30.0499 O   0  0  0  0  0  0  0  0  0  0  0  0
  -19.8279   -2.4223  -31.2295 O   0  0  0  0  0  0  0  0  0  0  0  0
  -19.0944   -3.2443  -29.3117 O   0  0  0  0  0  0  0  0  0  0  0  0
  -27.6973    3.2817  -34.2953 N   0  0  0  0  0  0  0  0  0  0  0  0
  -24.8299    4.9000  -32.6447 N   0  0  0  0  0  0  0  0  0  0  0  0
  -22.5496    2.9854  -30.4877 N   0  0  0  0  0  0  0  0  0  0  0  0
  1  3  2  0
  1  5  1  0
  2  5  2  0
  2  7  1  0
  3  8  1  0
  4  6  2  0
  4  9  1  0
  5 10  1  0
  6 14  1  0
  7 13  2  0
  8 11  2  0
  8 12  1  0
  9 16  2  0
 10 11  1  0
 10 15  2  0
 11 38  1  0
 13 15  1  0
 14 17  2  0
 14 38  1  0
 16 17  1  0
 17 19  1  0
 18 19  1  0
 18 38  1  0
 19 39  1  0
 20 21  1  0
 20 40  1  0
 21 23  1  0
 21 39  1  0
 22 24  1  0
 22 34  2  0
 22 40  1  0
 23 27  1  0
 24 26  1  0
 24 28  2  0
 25 27  1  0
 25 35  1  0
 25 40  1  0
 26 29  2  0
 28 33  1  0
 28 35  1  0
 29 32  1  0
 29 36  1  0
 30 31  1  0
 31 36  1  0
 31 37  2  0
 32 33  2  0
M  END
$$$$

     RDKit          3D

 56 62  0  0  0  0  0  0  0  0999 V2000
  -31.7907   -2.0033  -37.0856 C   0  0  0  0  0  0  0  0  0  0  0  0
  -31.7096    0.3538  -36.5361 C   0  0  0  0  0  0  0  0  0  0  0  0
  -31.0848   -3.2848  -37.2879 C   0  0  0  0  0  0  0  0  0  0  0  0
  -31.1285   -0.8955  -36.3571 C   0  0  0  0  0  0  0  0  0  0  0  0
  -31.1721    1.4570  -35.8638 C   0  0  0  0  0  0  0  0  0  0  0  0
  -30.7208   -5.3759  -38.5843 C   0  0  0  0  0  0  0  0  0  0  0  0
  -30.7589    7.8771  -34.9563 C   0  0  0  0  0  0  0  0  0  0  0  0
  -30.0457   -1.0697  -35.5024 C   0  0  0  0  0  0  0  0  0  0  0  0
  -30.0757    1.2936  -34.9697 C   0  0  0  0  0  0  0  0  0  0  0  0
  -30.1307    4.8056  -34.9303 C   0  0  0  0  0  0  0  0  0  0  0  0
  -29.8973    7.2145  -33.9118 C   0  0  0  0  0  0  0  0  0  0  0  0
  -29.5345    0.0158  -34.7804 C   0  0  0  0  0  0  0  0  0  0  0  0
  -29.5202    2.5275  -34.2940 C   0  0  0  0  0  0  0  0  0  0  0  0
  -29.4494    5.8340  -34.0368 C   0  0  0  0  0  0  0  0  0  0  0  0
  -29.7038    7.7036  -30.5599 C   0  0  0  0  0  0  0  0  0  0  0  0
  -29.2224    8.2389  -33.0042 C   0  0  0  0  0  0  0  0  0  0  0  0
  -29.1379    7.4389  -29.2560 C   0  0  0  0  0  0  0  0  0  0  0  0
  -28.7818    7.8127  -31.6299 C   0  0  0  0  0  0  0  0  0  0  0  0
  -28.5756   -1.0451  -32.7305 C   0  0  0  0  0  0  0  0  0  0  0  0
  -28.4186   -0.2214  -33.8488 C   0  0  0  0  0  0  0  0  0  0  0  0
  -27.7382    7.2674  -29.1231 C   0  0  0  0  0  0  0  0  0  0  0  0
  -27.5267   -1.2289  -31.8446 C   0  0  0  0  0  0  0  0  0  0  0  0
  -27.1709    0.3817  -34.1116 C   0  0  0  0  0  0  0  0  0  0  0  0
  -26.8972    7.3378  -30.2676 C   0  0  0  0  0  0  0  0  0  0  0  0
  -26.2911   -0.5886  -32.0734 C   0  0  0  0  0  0  0  0  0  0  0  0
  -26.1180    0.1973  -33.2126 C   0  0  0  0  0  0  0  0  0  0  0  0
  -25.3890    7.1865  -30.2203 C   0  0  0  0  0  0  0  0  0  0  0  0
  -25.2008   -0.7134  -31.0378 C   0  0  0  0  0  0  0  0  0  0  0  0
  -24.7904    6.1952  -29.2430 C   0  0  0  0  0  0  0  0  0  0  0  0
  -23.2879    5.9354  -29.3314 C   0  0  0  0  0  0  0  0  0  0  0  0
  -22.7082   -0.4863  -30.3306 C   0  0  0  0  0  0  0  0  0  0  0  0
  -22.7873    5.4811  -26.8448 C   0  0  0  0  0  0  0  0  0  0  0  0
  -22.6990    5.0842  -28.1919 C   0  0  0  0  0  0  0  0  0  0  0  0
  -22.2222    4.6978  -25.8197 C   0  0  0  0  0  0  0  0  0  0  0  0
  -22.0036    3.8815  -28.4724 C   0  0  0  0  0  0  0  0  0  0  0  0
  -21.4950    0.4394  -27.7459 C   0  0  0  0  0  0  0  0  0  0  0  0
  -21.5095    3.0168  -27.4591 C   0  0  0  0  0  0  0  0  0  0  0  0
  -21.5601    3.4642  -26.1143 C   0  0  0  0  0  0  0  0  0  0  0  0
  -21.0806   -0.8679  -28.4332 C   0  0  0  0  0  0  0  0  0  0  0  0
  -20.8600    1.7224  -27.8415 C   0  0  0  0  0  0  0  0  0  0  0  0
  -20.6068   -1.7860  -30.7543 C   0  0  0  0  0  0  0  0  0  0  0  0
  -19.6739   -1.1044  -25.4900 C   0  0  0  0  0  0  0  0  0  0  0  0
  -19.0313   -1.4973  -30.4613 C   0  0  0  0  0  0  0  0  0  0  0  0
  -19.1219   -1.3718  -26.8430 C   0  0  0  0  0  0  0  0  0  0  0  0
  -18.7010   -1.6536  -29.0409 C   0  0  0  0  0  0  0  0  0  0  0  0
  -17.7885   -1.7503  -26.9792 C   0  0  0  0  0  0  0  0  0  0  0  0
  -17.4963   -1.8090  -28.3358 C   0  0  0  0  0  0  0  0  0  0  0  0
  -32.7794    0.5005  -37.3816 O   0  0  0  0  0  0  0  0  0  0  0  0
  -30.3148    3.5967  -34.3253 O   0  0  0  0  0  0  0  0  0  0  0  0
  -30.0236   -3.5299  -36.6913 O   0  0  0  0  0  0  0  0  0  0  0  0
  -22.9360    0.7014  -30.1583 O   0  0  0  0  0  0  0  0  0  0  0  0
  -31.6039   -4.2373  -38.1172 N   0  0  0  0  0  0  0  0  0  0  0  0
  -27.4434    7.6263  -31.4633 N   0  0  0  0  0  0  0  0  0  0  0  0
  -21.5385   -1.2012  -29.8221 N   0  0  0  0  0  0  0  0  0  0  0  0
  -19.7012   -1.3455  -28.1411 N   0  0  0  0  0  0  0  0  0  0  0  0
  -23.6578   -1.2314  -31.5680 S   0  0  0  0  0  0  0  0  0  0  0  0
  1  3  1  0
  1  4  1  0
  2  4  2  0
  2  5  1  0
  2 48  1  0
  3 50  2  0
  3 52  1  0
  4  8  1  0
  5  9  2  0
  6 52  1  0
  7 11  1  0
  8 12  2  0
  9 12  1  0
  9 13  1  0
 10 14  1  0
 10 49  1  0
 11 14  1  0
 11 16  1  0
 12 20  1  0
 13 49  1  0
 15 17  2  0
 15 18  1  0
 16 18  1  0
 17 21  1  0
 18 53  2  0
 19 20  2  0
 19 22  1  0
 20 23  1  0
 21 24  2  0
 22 25  2  0
 23 26  2  0
 24 27  1  0
 24 53  1  0
 25 26  1  0
 25 28  1  0
 27 29  2  3
 28 56  1  0
 29 30  1  0
 30 33  1  0
 31 51  2  0
 31 54  1  0
 31 56  1  0
 32 33  2  0
 32 34  1  0
 33 35  1  0
 34 38  2  0
 35 37  2  0
 36 39  1  0
 36 40  2  3
 37 38  1  0
 37 40  1  0
 39 54  1  0
 39 55  1  0
 41 43  1  0
 41 54  1  0
 42 44  1  0
 43 45  1  0
 44 46  1  0
 44 55  1  0
 45 47  1  0
 45 55  1  0
 46 47  1  0
M  END
$$$$

     RDKit          3D

 38 41  0  0  0  0  0  0  0  0999 V2000
  -29.5268    0.0896  -33.1419 C   0  0  0  0  0  0  0  0  0  0  0  0
  -29.4552    1.4815  -33.2762 C   0  0  0  0  0  0  0  0  0  0  0  0
  -28.4155   -0.6585  -33.5386 C   0  0  0  0  0  0  0  0  0  0  0  0
  -28.3043    2.0460  -33.8292 C   0  0  0  0  0  0  0  0  0  0  0  0
  -27.5424    5.7318  -32.8526 C   0  0  0  0  0  0  0  0  0  0  0  0
  -27.2555   -0.0685  -34.0587 C   0  0  0  0  0  0  0  0  0  0  0  0
  -27.2157    1.3070  -34.1813 C   0  0  0  0  0  0  0  0  0  0  0  0
  -27.2423    6.5839  -31.6415 C   0  0  0  0  0  0  0  0  0  0  0  0
  -26.8228    5.9206  -30.3969 C   0  0  0  0  0  0  0  0  0  0  0  0
  -26.2781    3.5702  -34.5832 C   0  0  0  0  0  0  0  0  0  0  0  0
  -26.3934    6.8327  -29.3583 C   0  0  0  0  0  0  0  0  0  0  0  0
  -26.3952    7.7462  -32.0698 C   0  0  0  0  0  0  0  0  0  0  0  0
  -26.4255    8.2725  -29.6315 C   0  0  0  0  0  0  0  0  0  0  0  0
  -26.0503    2.0281  -34.8171 C   0  0  0  0  0  0  0  0  0  0  0  0
  -26.0655    8.6804  -30.9987 C   0  0  0  0  0  0  0  0  0  0  0  0
  -24.2486    4.4326  -33.0721 C   0  0  0  0  0  0  0  0  0  0  0  0
  -23.3960    4.1691  -30.7317 C   0  0  0  0  0  0  0  0  0  0  0  0
  -23.3826    5.4264  -33.7582 C   0  0  0  0  0  0  0  0  0  0  0  0
  -22.3922   -0.6571  -31.3374 C   0  0  0  0  0  0  0  0  0  0  0  0
  -22.3718    0.7302  -31.2532 C   0  0  0  0  0  0  0  0  0  0  0  0
  -21.2974   -2.8391  -30.8819 C   0  0  0  0  0  0  0  0  0  0  0  0
  -21.3277   -1.4090  -30.8130 C   0  0  0  0  0  0  0  0  0  0  0  0
  -21.3291    1.3623  -30.6076 C   0  0  0  0  0  0  0  0  0  0  0  0
  -21.3319    2.8340  -30.4853 C   0  0  0  0  0  0  0  0  0  0  0  0
  -20.2767   -0.7474  -30.1389 C   0  0  0  0  0  0  0  0  0  0  0  0
  -20.2846    0.6714  -30.0274 C   0  0  0  0  0  0  0  0  0  0  0  0
  -20.1388   -3.5630  -30.4606 C   0  0  0  0  0  0  0  0  0  0  0  0
  -19.1750   -2.8722  -29.6753 C   0  0  0  0  0  0  0  0  0  0  0  0
  -19.1810   -1.4588  -29.5951 C   0  0  0  0  0  0  0  0  0  0  0  0
  -28.9509    4.2301  -35.0662 O   0  0  0  0  0  0  0  0  0  0  0  0
  -27.8818    6.3875  -33.9530 O   0  0  0  0  0  0  0  0  0  0  0  0
  -23.4716    4.5253  -29.4945 O   0  0  0  0  0  0  0  0  0  0  0  0
  -27.9508    4.4083  -32.7082 N   0  0  0  0  0  0  0  0  0  0  0  0
  -25.4787    3.9527  -33.3864 N   0  0  0  0  0  0  0  0  0  0  0  0
  -24.2529    4.6939  -31.6534 N   0  0  0  0  0  0  0  0  0  0  0  0
  -22.5463    3.2136  -31.1658 N   0  0  0  0  0  0  0  0  0  0  0  0
  -28.0228    3.6534  -34.0899 S   0  0  0  0  0  0  0  0  0  0  0  0
  -23.5046   -1.3299  -31.8281 F   0  0  0  0  0  0  0  0  0  0  0  0
  1  2  2  0
  1  3  1  0
  2  4  1  0
  3  6  2  0
  4  7  2  0
  4 37  1  0
  5  8  1  0
  5 31  2  0
  5 33  1  0
  6  7  1  0
  7 14  1  0
  8  9  1  0
  8 12  1  0
  9 11  1  0
 10 14  1  0
 10 34  1  0
 11 13  1  0
 12 15  1  0
 13 15  1  0
 16 18  1  0
 16 34  2  3
 16 35  1  0
 17 32  2  0
 17 35  1  0
 17 36  1  0
 19 20  2  0
 19 22  1  0
 19 38  1  0
 20 23  1  0
 21 22  1  0
 21 27  1  0
 22 25  2  0
 23 24  1  0
 23 26  2  0
 24 36  1  0
 25 26  1  0
 25 29  1  0
 27 28  1  0
 28 29  2  0
 30 37  1  0
 33 37  1  0
M  END
$$$$

     RDKit          3D

 51 58  0  0  0  0  0  0  0  0999 V2000
  -31.4661    8.0939  -28.6725 C   0  0  0  0  0  0  0  0  0  0  0  0
  -31.0817    8.0027  -30.0151 C   0  0  0  0  0  0  0  0  0  0  0  0
  -30.6535    7.5893  -27.6754 C   0  0  0  0  0  0  0  0  0  0  0  0
  -29.8753    7.4257  -30.3721 C   0  0  0  0  0  0  0  0  0  0  0  0
  -29.5581    7.3950  -31.8395 C   0  0  0  0  0  0  0  0  0  0  0  0
  -29.4300    6.9626  -27.9907 C   0  0  0  0  0  0  0  0  0  0  0  0
  -29.0582    6.8568  -29.3609 C   0  0  0  0  0  0  0  0  0  0  0  0
  -27.7480    0.9286  -33.4983 C   0  0  0  0  0  0  0  0  0  0  0  0
  -27.7982    6.8937  -33.4416 C   0  0  0  0  0  0  0  0  0  0  0  0
  -27.0248   -0.3881  -33.6271 C   0  0  0  0  0  0  0  0  0  0  0  0
  -26.3521    6.9763  -33.7866 C   0  0  0  0  0  0  0  0  0  0  0  0
  -25.9337    2.1374  -34.3824 C   0  0  0  0  0  0  0  0  0  0  0  0
  -25.9450    5.0916  -32.1936 C   0  0  0  0  0  0  0  0  0  0  0  0
  -25.8775    7.9114  -34.6878 C   0  0  0  0  0  0  0  0  0  0  0  0
  -25.5581   -0.2790  -33.7611 C   0  0  0  0  0  0  0  0  0  0  0  0
  -25.4661    6.0413  -33.2041 C   0  0  0  0  0  0  0  0  0  0  0  0
  -25.0249    0.9039  -34.4517 C   0  0  0  0  0  0  0  0  0  0  0  0
  -24.9948    3.0908  -30.7771 C   0  0  0  0  0  0  0  0  0  0  0  0
  -24.9748    4.1688  -31.7246 C   0  0  0  0  0  0  0  0  0  0  0  0
  -24.6730   -0.6136  -31.4577 C   0  0  0  0  0  0  0  0  0  0  0  0
  -24.5791    7.9509  -35.0759 C   0  0  0  0  0  0  0  0  0  0  0  0
  -24.0990    6.0652  -33.6427 C   0  0  0  0  0  0  0  0  0  0  0  0
  -23.7048    2.4849  -30.7429 C   0  0  0  0  0  0  0  0  0  0  0  0
  -23.6661    4.1724  -32.1970 C   0  0  0  0  0  0  0  0  0  0  0  0
  -23.6680    7.0242  -34.5822 C   0  0  0  0  0  0  0  0  0  0  0  0
  -23.2910   -0.8304  -30.9306 C   0  0  0  0  0  0  0  0  0  0  0  0
  -23.3060    1.4573  -29.7289 C   0  0  0  0  0  0  0  0  0  0  0  0
  -23.1918    5.0898  -33.1564 C   0  0  0  0  0  0  0  0  0  0  0  0
  -22.9251    2.0402  -34.5798 C   0  0  0  0  0  0  0  0  0  0  0  0
  -22.6847   -2.0423  -31.2446 C   0  0  0  0  0  0  0  0  0  0  0  0
  -22.6165    0.1688  -30.1914 C   0  0  0  0  0  0  0  0  0  0  0  0
  -21.7472    2.3908  -33.7809 C   0  0  0  0  0  0  0  0  0  0  0  0
  -21.7946    2.7983  -32.3932 C   0  0  0  0  0  0  0  0  0  0  0  0
  -21.3430   -2.2915  -30.8237 C   0  0  0  0  0  0  0  0  0  0  0  0
  -21.3170   -0.0938  -29.7634 C   0  0  0  0  0  0  0  0  0  0  0  0
  -20.6867   -1.2899  -30.1030 C   0  0  0  0  0  0  0  0  0  0  0  0
  -20.5082    2.2185  -34.3902 C   0  0  0  0  0  0  0  0  0  0  0  0
  -20.5966    3.1182  -31.7868 C   0  0  0  0  0  0  0  0  0  0  0  0
  -19.3804    2.4770  -33.7069 C   0  0  0  0  0  0  0  0  0  0  0  0
  -19.4070    2.9077  -32.4194 C   0  0  0  0  0  0  0  0  0  0  0  0
  -28.4805    6.0138  -34.0388 O   0  0  0  0  0  0  0  0  0  0  0  0
  -27.2884    1.7086  -34.5811 O   0  0  0  0  0  0  0  0  0  0  0  0
  -26.0972    2.6427  -30.1629 O   0  0  0  0  0  0  0  0  0  0  0  0
  -25.6428   -0.4677  -30.7311 O   0  0  0  0  0  0  0  0  0  0  0  0
  -23.6958    1.2000  -33.9677 O   0  0  0  0  0  0  0  0  0  0  0  0
  -23.1003    2.4328  -35.6978 O   0  0  0  0  0  0  0  0  0  0  0  0
  -28.2190    7.3909  -32.2347 N   0  0  0  0  0  0  0  0  0  0  0  0
  -24.7669   -0.7869  -32.8007 N   0  0  0  0  0  0  0  0  0  0  0  0
  -23.0043    3.0748  -31.7666 N   0  0  0  0  0  0  0  0  0  0  0  0
  -20.5108    3.7142  -30.1662 Cl  0  0  0  0  0  0  0  0  0  0  0  0
  -19.0602   -1.5195  -29.4833 Cl  0  0  0  0  0  0  0  0  0  0  0  0
  1  2  2  0
  1  3  1  0
  2  4  1  0
  3  6  2  0
  4  5  1  0
  4  7  2  0
  5 47  1  0
  6  7  1  0
  8 10  1  0
  8 42  1  0
  9 11  1  0
  9 41  2  0
  9 47  1  0
 10 15  1  0
 11 14  2  0
 11 16  1  0
 12 17  1  0
 12 42  1  0
 13 16  1  0
 13 19  1  0
 14 21  1  0
 15 17  1  0
 15 48  1  0
 16 22  2  0
 17 45  1  0
 18 19  2  0
 18 23  1  0
 18 43  1  0
 19 24  1  0
 20 26  1  0
 20 44  2  0
 20 48  1  0
 21 25  2  0
 22 25  1  0
 22 28  1  0
 23 27  1  0
 23 49  1  0
 24 28  2  0
 24 49  1  0
 26 30  2  0
 26 31  1  0
 27 31  1  0
 29 32  1  0
 29 45  1  0
 29 46  2  0
 30 34  1  0
 31 35  1  0
 32 33  2  0
 32 37  1  0
 33 38  1  0
 33 49  1  0
 34 36  1  0
 35 36  2  0
 36 51  1  0
 37 39  2  0
 38 40  2  0
 38 50  1  0
 39 40  1  0
M  END
$$$$

     RDKit          3D

 44 49  0  0  0  0  0  0  0  0999 V2000
  -31.7031    1.4818  -34.6037 C   0  0  0  0  0  0  0  0  0  0  0  0
  -31.2813    2.8216  -34.0669 C   0  0  0  0  0  0  0  0  0  0  0  0
  -31.1908   -0.6781  -35.1658 C   0  0  0  0  0  0  0  0  0  0  0  0
  -30.7461    0.4547  -34.4750 C   0  0  0  0  0  0  0  0  0  0  0  0
  -30.4094   -1.9679  -35.2895 C   0  0  0  0  0  0  0  0  0  0  0  0
  -29.5247    0.6161  -33.7693 C   0  0  0  0  0  0  0  0  0  0  0  0
  -29.5697    4.1955  -32.8752 C   0  0  0  0  0  0  0  0  0  0  0  0
  -29.1794    1.8709  -33.2500 C   0  0  0  0  0  0  0  0  0  0  0  0
  -26.7863    1.1924  -32.7957 C   0  0  0  0  0  0  0  0  0  0  0  0
  -25.5104    1.6146  -32.1549 C   0  0  0  0  0  0  0  0  0  0  0  0
  -25.2531    2.9798  -31.9731 C   0  0  0  0  0  0  0  0  0  0  0  0
  -24.7512   -0.6912  -31.6776 C   0  0  0  0  0  0  0  0  0  0  0  0
  -24.5258    0.6968  -31.6714 C   0  0  0  0  0  0  0  0  0  0  0  0
  -24.0774    3.4351  -31.4033 C   0  0  0  0  0  0  0  0  0  0  0  0
  -23.7141   -1.5148  -31.3375 C   0  0  0  0  0  0  0  0  0  0  0  0
  -23.3001    1.2011  -31.2009 C   0  0  0  0  0  0  0  0  0  0  0  0
  -23.0855    2.5566  -31.0510 C   0  0  0  0  0  0  0  0  0  0  0  0
  -22.4866   -0.9813  -31.0073 C   0  0  0  0  0  0  0  0  0  0  0  0
  -22.2584    4.0792  -28.2348 C   0  0  0  0  0  0  0  0  0  0  0  0
  -22.2349    4.0981  -26.8460 C   0  0  0  0  0  0  0  0  0  0  0  0
  -21.7772    2.9962  -28.8995 C   0  0  0  0  0  0  0  0  0  0  0  0
  -21.5680   -3.2496  -30.7663 C   0  0  0  0  0  0  0  0  0  0  0  0
  -21.6838    3.0682  -26.1213 C   0  0  0  0  0  0  0  0  0  0  0  0
  -21.3912   -1.8526  -30.8060 C   0  0  0  0  0  0  0  0  0  0  0  0
  -21.2394    1.9227  -28.1714 C   0  0  0  0  0  0  0  0  0  0  0  0
  -21.2949    4.0668  -33.5229 C   0  0  0  0  0  0  0  0  0  0  0  0
  -21.2014    1.9685  -26.7699 C   0  0  0  0  0  0  0  0  0  0  0  0
  -21.1840    3.9783  -31.0654 C   0  0  0  0  0  0  0  0  0  0  0  0
  -20.8709    3.6571  -34.7525 C   0  0  0  0  0  0  0  0  0  0  0  0
  -20.6642    3.5817  -32.3682 C   0  0  0  0  0  0  0  0  0  0  0  0
  -20.4514   -4.0463  -30.5209 C   0  0  0  0  0  0  0  0  0  0  0  0
  -20.1320   -1.2895  -30.7395 C   0  0  0  0  0  0  0  0  0  0  0  0
  -19.7980    2.7913  -34.8252 C   0  0  0  0  0  0  0  0  0  0  0  0
  -19.5515    2.7154  -32.4598 C   0  0  0  0  0  0  0  0  0  0  0  0
  -19.2019   -3.4488  -30.4263 C   0  0  0  0  0  0  0  0  0  0  0  0
  -19.0426   -2.0794  -30.5008 C   0  0  0  0  0  0  0  0  0  0  0  0
  -19.1168    2.3534  -33.7195 C   0  0  0  0  0  0  0  0  0  0  0  0
  -26.8121    0.0667  -33.3732 O   0  0  0  0  0  0  0  0  0  0  0  0
  -21.3651    5.1369  -30.8328 O   0  0  0  0  0  0  0  0  0  0  0  0
  -32.3852   -0.4947  -35.6709 N   0  0  0  0  0  0  0  0  0  0  0  0
  -30.0153    2.9346  -33.3683 N   0  0  0  0  0  0  0  0  0  0  0  0
  -27.8815    2.0332  -32.6849 N   0  0  0  0  0  0  0  0  0  0  0  0
  -22.2857    0.3616  -30.9016 N   0  0  0  0  0  0  0  0  0  0  0  0
  -21.7840    2.8723  -30.3766 N   0  0  0  0  0  0  0  0  0  0  0  0
  1  2  1  0
  1  4  2  0
  2 41  1  0
  3  4  1  0
  3  5  1  0
  3 40  2  0
  4  6  1  0
  6  8  2  0
  7 41  1  0
  8 41  1  0
  8 42  1  0
  9 10  1  0
  9 38  2  0
  9 42  1  0
 10 11  2  0
 10 13  1  0
 11 14  1  0
 12 13  2  0
 12 15  1  0
 13 16  1  0
 14 17  2  0
 15 18  2  0
 16 17  1  0
 16 43  2  0
 17 44  1  0
 18 24  1  0
 18 43  1  0
 19 20  1  0
 19 21  2  0
 20 23  1  0
 21 25  1  0
 21 44  1  0
 22 24  2  0
 22 31  1  0
 23 27  2  0
 24 32  1  0
 25 27  1  0
 26 29  2  0
 26 30  1  0
 28 30  1  0
 28 39  2  0
 28 44  1  0
 29 33  1  0
 30 34  2  0
 31 35  2  0
 32 36  2  0
 33 37  2  0
 34 37  1  0
 35 36  1  0
M  END
$$$$

     RDKit          3D

 38 40  0  0  0  0  0  0  0  0999 V2000
  -32.2610    0.6179  -33.7533 C   0  0  0  0  0  0  0  0  0  0  0  0
  -32.1551   -0.6070  -35.9166 C   0  0  0  0  0  0  0  0  0  0  0  0
  -31.4401   -0.1190  -34.7160 C   0  0  0  0  0  0  0  0  0  0  0  0
  -30.0633   -0.4275  -34.4751 C   0  0  0  0  0  0  0  0  0  0  0  0
  -29.2978   -0.0543  -33.2468 C   0  0  0  0  0  0  0  0  0  0  0  0
  -27.8229   -0.7128  -32.9989 C   0  0  0  0  0  0  0  0  0  0  0  0
  -26.3694   -0.3546  -32.6992 C   0  0  0  0  0  0  0  0  0  0  0  0
  -25.7772   -0.8797  -31.5325 C   0  0  0  0  0  0  0  0  0  0  0  0
  -25.6185    0.4390  -33.5299 C   0  0  0  0  0  0  0  0  0  0  0  0
  -24.4349   -0.6890  -31.2487 C   0  0  0  0  0  0  0  0  0  0  0  0
  -24.2428    0.6331  -33.2615 C   0  0  0  0  0  0  0  0  0  0  0  0
  -24.0662    1.7212  -35.3553 C   0  0  0  0  0  0  0  0  0  0  0  0
  -23.6494    0.0824  -32.1170 C   0  0  0  0  0  0  0  0  0  0  0  0
  -23.2305    2.3432  -36.3790 C   0  0  0  0  0  0  0  0  0  0  0  0
  -23.3067    6.6386  -30.3530 C   0  0  0  0  0  0  0  0  0  0  0  0
  -22.8142    1.6897  -37.5506 C   0  0  0  0  0  0  0  0  0  0  0  0
  -22.8660    3.7020  -36.2257 C   0  0  0  0  0  0  0  0  0  0  0  0
  -22.2240    0.2748  -31.9238 C   0  0  0  0  0  0  0  0  0  0  0  0
  -22.1163    1.9771  -29.5444 C   0  0  0  0  0  0  0  0  0  0  0  0
  -22.0248    2.3213  -38.5183 C   0  0  0  0  0  0  0  0  0  0  0  0
  -22.0176    2.6831  -28.3704 C   0  0  0  0  0  0  0  0  0  0  0  0
  -22.0876    4.3455  -37.1904 C   0  0  0  0  0  0  0  0  0  0  0  0
  -21.9840    4.9730  -29.1846 C   0  0  0  0  0  0  0  0  0  0  0  0
  -21.6640    0.6657  -29.6234 C   0  0  0  0  0  0  0  0  0  0  0  0
  -21.5780    1.3388  -32.5339 C   0  0  0  0  0  0  0  0  0  0  0  0
  -21.5047    2.0725  -27.2271 C   0  0  0  0  0  0  0  0  0  0  0  0
  -21.6840    3.6498  -38.3136 C   0  0  0  0  0  0  0  0  0  0  0  0
  -21.5675    7.1627  -28.7465 C   0  0  0  0  0  0  0  0  0  0  0  0
  -21.1900    0.0363  -28.4762 C   0  0  0  0  0  0  0  0  0  0  0  0
  -21.0837    0.7199  -27.2799 C   0  0  0  0  0  0  0  0  0  0  0  0
  -20.5268    0.0175  -26.0827 C   0  0  0  0  0  0  0  0  0  0  0  0
  -20.2688    0.9068  -24.8261 C   0  0  0  0  0  0  0  0  0  0  0  0
  -21.0443    4.7983  -29.8941 O   0  0  0  0  0  0  0  0  0  0  0  0
  -20.4892    1.5725  -32.7620 O   0  0  0  0  0  0  0  0  0  0  0  0
  -23.5363    1.3299  -34.1805 N   0  0  0  0  0  0  0  0  0  0  0  0
  -22.6321    6.2083  -29.0902 N   0  0  0  0  0  0  0  0  0  0  0  0
  -22.4078    4.0220  -28.3192 N   0  0  0  0  0  0  0  0  0  0  0  0
  -21.6636   -0.1510  -30.7712 N   0  0  0  0  0  0  0  0  0  0  0  0
  1  3  1  0
  2  3  1  0
  3  4  2  3
  4  5  1  0
  5  6  1  0
  6  7  1  0
  7  8  2  0
  7  9  1  0
  8 10  1  0
  9 11  2  0
 10 13  2  0
 11 13  1  0
 11 35  1  0
 12 14  1  0
 12 35  2  3
 13 18  1  0
 14 16  2  0
 14 17  1  0
 15 36  1  0
 16 20  1  0
 17 22  2  0
 18 25  1  0
 18 38  1  0
 19 21  2  0
 19 24  1  0
 20 27  2  0
 21 26  1  0
 21 37  1  0
 22 27  1  0
 23 33  2  0
 23 36  1  0
 23 37  1  0
 24 29  1  0
 24 38  2  3
 25 34  2  0
 26 30  1  0
 28 36  1  0
 29 30  2  0
 30 31  1  0
 31 32  1  0
M  END
$$$$

     RDKit          3D

 39 42  0  0  0  0  0  0  0  0999 V2000
  -30.2082    0.1564  -34.5953 C   0  0  0  0  0  0  0  0  0  0  0  0
  -29.8116   -1.1493  -34.6694 C   0  0  0  0  0  0  0  0  0  0  0  0
  -29.4647    1.0919  -33.8468 C   0  0  0  0  0  0  0  0  0  0  0  0
  -28.6907   -1.5771  -33.9961 C   0  0  0  0  0  0  0  0  0  0  0  0
  -28.3136    0.6469  -33.1569 C   0  0  0  0  0  0  0  0  0  0  0  0
  -27.9918   -0.7205  -33.1485 C   0  0  0  0  0  0  0  0  0  0  0  0
  -25.8819   -0.5686  -32.0763 C   0  0  0  0  0  0  0  0  0  0  0  0
  -24.2101    0.8007  -32.3082 C   0  0  0  0  0  0  0  0  0  0  0  0
  -24.0010    0.0685  -31.1120 C   0  0  0  0  0  0  0  0  0  0  0  0
  -23.8512    2.7242  -33.7831 C   0  0  0  0  0  0  0  0  0  0  0  0
  -23.6028    2.7591  -38.3222 C   0  0  0  0  0  0  0  0  0  0  0  0
  -23.5507    4.6869  -35.1783 C   0  0  0  0  0  0  0  0  0  0  0  0
  -23.3924    4.3275  -36.6380 C   0  0  0  0  0  0  0  0  0  0  0  0
  -22.6100    5.0120  -27.5072 C   0  0  0  0  0  0  0  0  0  0  0  0
  -22.2689    4.3415  -26.3443 C   0  0  0  0  0  0  0  0  0  0  0  0
  -21.9899    1.9376  -32.3568 C   0  0  0  0  0  0  0  0  0  0  0  0
  -22.1190    4.6174  -28.7583 C   0  0  0  0  0  0  0  0  0  0  0  0
  -21.7380    4.0429  -33.6532 C   0  0  0  0  0  0  0  0  0  0  0  0
  -21.4708    3.1916  -26.3906 C   0  0  0  0  0  0  0  0  0  0  0  0
  -21.3918    3.2589  -32.4381 C   0  0  0  0  0  0  0  0  0  0  0  0
  -21.2699    3.4723  -28.8168 C   0  0  0  0  0  0  0  0  0  0  0  0
  -20.9811    2.7425  -27.6521 C   0  0  0  0  0  0  0  0  0  0  0  0
  -20.7028    2.9768  -30.1339 C   0  0  0  0  0  0  0  0  0  0  0  0
  -19.1782    2.8379  -30.1645 C   0  0  0  0  0  0  0  0  0  0  0  0
  -32.7715   -0.3352  -35.0825 O   0  0  0  0  0  0  0  0  0  0  0  0
  -32.0390    1.9488  -35.0422 O   0  0  0  0  0  0  0  0  0  0  0  0
  -31.2099    0.5129  -36.8330 O   0  0  0  0  0  0  0  0  0  0  0  0
  -27.0221   -1.2001  -32.3421 O   0  0  0  0  0  0  0  0  0  0  0  0
  -25.0509    2.7054  -34.1582 O   0  0  0  0  0  0  0  0  0  0  0  0
  -23.4967    5.2030  -37.4922 O   0  0  0  0  0  0  0  0  0  0  0  0
  -23.0551    0.0501  -30.3003 O   0  0  0  0  0  0  0  0  0  0  0  0
  -23.0771    3.1775  -37.0280 O   0  0  0  0  0  0  0  0  0  0  0  0
  -25.3346    0.3780  -32.8853 N   0  0  0  0  0  0  0  0  0  0  0  0
  -25.0961   -0.7630  -31.0210 N   0  0  0  0  0  0  0  0  0  0  0  0
  -23.3790    1.8221  -32.8332 N   0  0  0  0  0  0  0  0  0  0  0  0
  -22.9729    3.6738  -34.3042 N   0  0  0  0  0  0  0  0  0  0  0  0
  -21.0982    3.8927  -31.2708 N   0  0  0  0  0  0  0  0  0  0  0  0
  -18.8246    1.8427  -31.1474 N   0  0  0  0  0  0  0  0  0  0  0  0
  -31.6472    0.6319  -35.4949 S   0  0  0  0  0  0  0  0  0  0  0  0
  1  2  2  0
  1  3  1  0
  1 39  1  0
  2  4  1  0
  3  5  2  0
  4  6  2  0
  5  6  1  0
  6 28  1  0
  7 28  1  0
  7 33  1  0
  7 34  1  0
  8  9  1  0
  8 33  2  0
  8 35  1  0
  9 31  2  0
  9 34  1  0
 10 29  2  0
 10 35  1  0
 10 36  1  0
 11 32  1  0
 12 13  1  0
 12 36  1  0
 13 30  2  0
 13 32  1  0
 14 15  2  0
 14 17  1  0
 15 19  1  0
 16 20  1  0
 16 35  1  0
 17 21  2  0
 18 20  1  0
 18 36  1  0
 19 22  2  0
 20 37  1  0
 21 22  1  0
 21 23  1  0
 23 24  1  0
 23 37  1  0
 24 38  1  0
 25 39  1  0
 26 39  1  0
 27 39  1  0
M  END
$$$$

     RDKit          3D

 35 39  0  0  0  0  0  0  0  0999 V2000
  -30.2554    1.1505  -36.8213 C   0  0  0  0  0  0  0  0  0  0  0  0
  -29.7535    0.6749  -35.6115 C   0  0  0  0  0  0  0  0  0  0  0  0
  -29.8097    2.3792  -37.2952 C   0  0  0  0  0  0  0  0  0  0  0  0
  -29.3920    5.1628  -32.1532 C   0  0  0  0  0  0  0  0  0  0  0  0
  -29.1407    4.3482  -33.2324 C   0  0  0  0  0  0  0  0  0  0  0  0
  -28.8470    1.3996  -34.8545 C   0  0  0  0  0  0  0  0  0  0  0  0
  -28.8997    3.1754  -36.5573 C   0  0  0  0  0  0  0  0  0  0  0  0
  -28.4147    0.9446  -33.5098 C   0  0  0  0  0  0  0  0  0  0  0  0
  -28.3613    5.8493  -31.5522 C   0  0  0  0  0  0  0  0  0  0  0  0
  -27.7695    4.1971  -33.6603 C   0  0  0  0  0  0  0  0  0  0  0  0
  -27.4451    3.3371  -34.7187 C   0  0  0  0  0  0  0  0  0  0  0  0
  -27.0482    5.7204  -31.9429 C   0  0  0  0  0  0  0  0  0  0  0  0
  -26.7258    4.8911  -33.0037 C   0  0  0  0  0  0  0  0  0  0  0  0
  -26.0930    3.2012  -35.1187 C   0  0  0  0  0  0  0  0  0  0  0  0
  -25.3961    4.6724  -33.4567 C   0  0  0  0  0  0  0  0  0  0  0  0
  -24.2532    5.3515  -32.8433 C   0  0  0  0  0  0  0  0  0  0  0  0
  -23.8393    3.6746  -31.3328 C   0  0  0  0  0  0  0  0  0  0  0  0
  -23.2276    4.6514  -32.4078 C   0  0  0  0  0  0  0  0  0  0  0  0
  -22.7001    1.7027  -30.4676 C   0  0  0  0  0  0  0  0  0  0  0  0
  -21.9535    5.0752  -31.8225 C   0  0  0  0  0  0  0  0  0  0  0  0
  -21.5032    0.8061  -30.2368 C   0  0  0  0  0  0  0  0  0  0  0  0
  -21.4822    3.6886  -31.4877 C   0  0  0  0  0  0  0  0  0  0  0  0
  -21.2904   -0.4161  -30.8939 C   0  0  0  0  0  0  0  0  0  0  0  0
  -20.6651   -3.5344  -30.8843 C   0  0  0  0  0  0  0  0  0  0  0  0
  -20.6108    1.2318  -29.2571 C   0  0  0  0  0  0  0  0  0  0  0  0
  -20.0097   -4.8994  -30.7809 C   0  0  0  0  0  0  0  0  0  0  0  0
  -20.1792   -1.2174  -30.5619 C   0  0  0  0  0  0  0  0  0  0  0  0
  -19.5327    0.4424  -28.9419 C   0  0  0  0  0  0  0  0  0  0  0  0
  -19.2978   -0.7474  -29.5892 C   0  0  0  0  0  0  0  0  0  0  0  0
  -28.4939    4.2726  -36.9415 O   0  0  0  0  0  0  0  0  0  0  0  0
  -23.7924    1.3623  -30.0819 O   0  0  0  0  0  0  0  0  0  0  0  0
  -19.8514   -2.4491  -31.1472 O   0  0  0  0  0  0  0  0  0  0  0  0
  -28.4147    2.6175  -35.3824 N   0  0  0  0  0  0  0  0  0  0  0  0
  -25.1354    3.8764  -34.4650 N   0  0  0  0  0  0  0  0  0  0  0  0
  -22.6333    2.9351  -31.0600 N   0  0  0  0  0  0  0  0  0  0  0  0
  1  2  1  0
  1  3  2  0
  2  6  2  0
  3  7  1  0
  4  5  2  0
  4  9  1  0
  5 10  1  0
  6  8  1  0
  6 33  1  0
  7 30  2  0
  7 33  1  0
  9 12  2  0
 10 11  2  0
 10 13  1  0
 11 14  1  0
 11 33  1  0
 12 13  1  0
 13 15  2  0
 14 34  2  0
 15 16  1  0
 15 34  1  0
 16 18  1  0
 17 18  1  0
 17 35  1  0
 18 20  1  0
 19 21  1  0
 19 31  2  0
 19 35  1  0
 20 22  1  0
 21 23  2  0
 21 25  1  0
 22 35  1  0
 23 27  1  0
 24 26  1  0
 24 32  1  0
 25 28  2  0
 27 29  2  0
 27 32  1  0
 28 29  1  0
M  END
$$$$

     RDKit          3D

 52 60  0  0  0  0  0  0  0  0999 V2000
  -30.8486    8.2250  -29.0823 C   0  0  0  0  0  0  0  0  0  0  0  0
  -29.8758    7.3282  -28.3348 C   0  0  0  0  0  0  0  0  0  0  0  0
  -29.4942    7.8299  -31.0917 C   0  0  0  0  0  0  0  0  0  0  0  0
  -29.1042    8.0225  -32.5514 C   0  0  0  0  0  0  0  0  0  0  0  0
  -28.4673    5.7742  -30.9017 C   0  0  0  0  0  0  0  0  0  0  0  0
  -28.4880    7.4656  -28.8866 C   0  0  0  0  0  0  0  0  0  0  0  0
  -28.0801    7.7109  -35.4070 C   0  0  0  0  0  0  0  0  0  0  0  0
  -27.8261    5.9433  -32.2733 C   0  0  0  0  0  0  0  0  0  0  0  0
  -27.5890    0.2795  -33.0756 C   0  0  0  0  0  0  0  0  0  0  0  0
  -27.3508    7.3020  -34.2252 C   0  0  0  0  0  0  0  0  0  0  0  0
  -27.1973    0.9313  -34.2561 C   0  0  0  0  0  0  0  0  0  0  0  0
  -27.0153    4.8079  -32.8592 C   0  0  0  0  0  0  0  0  0  0  0  0
  -26.7493    4.0136  -31.6308 C   0  0  0  0  0  0  0  0  0  0  0  0
  -26.6542   -0.3917  -32.2808 C   0  0  0  0  0  0  0  0  0  0  0  0
  -26.2599    6.3065  -34.6328 C   0  0  0  0  0  0  0  0  0  0  0  0
  -25.8692    0.7987  -34.6925 C   0  0  0  0  0  0  0  0  0  0  0  0
  -25.5728    3.2911  -31.5942 C   0  0  0  0  0  0  0  0  0  0  0  0
  -25.3503   -0.5185  -32.7927 C   0  0  0  0  0  0  0  0  0  0  0  0
  -25.0651    2.4539  -30.5945 C   0  0  0  0  0  0  0  0  0  0  0  0
  -24.9317    0.1267  -33.9520 C   0  0  0  0  0  0  0  0  0  0  0  0
  -24.4643    3.4800  -32.4878 C   0  0  0  0  0  0  0  0  0  0  0  0
  -24.4436   -1.3921  -30.8764 C   0  0  0  0  0  0  0  0  0  0  0  0
  -23.7342    2.1150  -30.9329 C   0  0  0  0  0  0  0  0  0  0  0  0
  -22.9972   -1.2976  -30.5666 C   0  0  0  0  0  0  0  0  0  0  0  0
  -22.9323    1.2879  -30.0231 C   0  0  0  0  0  0  0  0  0  0  0  0
  -22.3398   -2.4932  -30.7186 C   0  0  0  0  0  0  0  0  0  0  0  0
  -22.3680   -0.0772  -30.2210 C   0  0  0  0  0  0  0  0  0  0  0  0
  -22.1251    2.2709  -34.0079 C   0  0  0  0  0  0  0  0  0  0  0  0
  -22.0828    2.7603  -32.6880 C   0  0  0  0  0  0  0  0  0  0  0  0
  -21.6104    5.7747  -30.8775 C   0  0  0  0  0  0  0  0  0  0  0  0
  -20.9917   -2.5171  -30.3500 C   0  0  0  0  0  0  0  0  0  0  0  0
  -21.0094   -0.1713  -29.8473 C   0  0  0  0  0  0  0  0  0  0  0  0
  -21.0199    2.2443  -34.8033 C   0  0  0  0  0  0  0  0  0  0  0  0
  -21.1581    4.5742  -30.1188 C   0  0  0  0  0  0  0  0  0  0  0  0
  -20.8047    3.1643  -32.1473 C   0  0  0  0  0  0  0  0  0  0  0  0
  -20.3554   -1.3927  -29.8720 C   0  0  0  0  0  0  0  0  0  0  0  0
  -19.7976    2.6828  -34.3106 C   0  0  0  0  0  0  0  0  0  0  0  0
  -19.7043    3.1673  -33.0084 C   0  0  0  0  0  0  0  0  0  0  0  0
  -19.2563    1.4861  -30.1257 C   0  0  0  0  0  0  0  0  0  0  0  0
  -19.2852    3.0120  -30.1209 C   0  0  0  0  0  0  0  0  0  0  0  0
  -24.4324   -1.2514  -32.1820 O   0  0  0  0  0  0  0  0  0  0  0  0
  -21.2970    4.5195  -28.9116 O   0  0  0  0  0  0  0  0  0  0  0  0
  -30.6811    8.1794  -30.5234 N   0  0  0  0  0  0  0  0  0  0  0  0
  -28.5520    7.1542  -30.3314 N   0  0  0  0  0  0  0  0  0  0  0  0
  -27.7678    7.2336  -32.8925 N   0  0  0  0  0  0  0  0  0  0  0  0
  -25.9283    5.2856  -33.6522 N   0  0  0  0  0  0  0  0  0  0  0  0
  -23.3832    2.8213  -32.0583 N   0  0  0  0  0  0  0  0  0  0  0  0
  -20.4993    3.5544  -30.8255 N   0  0  0  0  0  0  0  0  0  0  0  0
  -20.3613    0.9597  -29.4091 N   0  0  0  0  0  0  0  0  0  0  0  0
  -24.4939    4.4481  -33.9160 S   0  0  0  0  0  0  0  0  0  0  0  0
  -29.2490   -0.0270  -32.6999 Cl  0  0  0  0  0  0  0  0  0  0  0  0
  -20.0402   -3.9582  -30.5352 Cl  0  0  0  0  0  0  0  0  0  0  0  0
  1  2  1  0
  1 43  1  0
  2  6  1  0
  3  4  1  0
  3 43  2  0
  3 44  1  0
  4 45  1  0
  5  8  1  0
  5 44  1  0
  6 44  1  0
  7 10  1  0
  8 12  1  0
  8 45  1  0
  9 11  2  0
  9 14  1  0
  9 51  1  0
 10 15  1  0
 10 45  1  0
 11 16  1  0
 12 13  1  0
 12 46  1  0
 13 17  1  0
 14 18  2  0
 15 46  1  0
 16 20  2  0
 17 19  1  0
 17 21  2  0
 18 20  1  0
 18 41  1  0
 19 23  1  0
 21 47  1  0
 21 50  1  0
 22 24  1  0
 22 41  1  0
 23 25  1  0
 23 47  1  0
 24 26  2  0
 24 27  1  0
 25 27  1  0
 26 31  1  0
 27 32  1  0
 28 29  2  0
 28 33  1  0
 29 35  1  0
 29 47  1  0
 30 34  1  0
 31 36  1  0
 31 52  1  0
 32 36  2  0
 32 49  1  0
 33 37  2  0
 34 42  2  0
 34 48  1  0
 35 38  2  0
 35 48  1  0
 37 38  1  0
 39 40  1  0
 39 49  1  0
 40 48  1  0
 46 50  1  0
M  END
$$$$

     RDKit          3D

 49 50  0  0  0  0  0  0  0  0999 V2000
  -32.1530    2.7527  -34.8292 C   0  0  0  0  0  0  0  0  0  0  0  0
  -31.5247    6.8380  -32.0413 C   0  0  0  0  0  0  0  0  0  0  0  0
  -31.1455    2.3220  -33.7504 C   0  0  0  0  0  0  0  0  0  0  0  0
  -30.9311   -1.7576  -37.0489 C   0  0  0  0  0  0  0  0  0  0  0  0
  -30.9451   -0.2843  -34.4736 C   0  0  0  0  0  0  0  0  0  0  0  0
  -30.4747    4.6769  -32.7287 C   0  0  0  0  0  0  0  0  0  0  0  0
  -30.4437    0.9799  -33.9405 C   0  0  0  0  0  0  0  0  0  0  0  0
  -30.0632   -1.3613  -34.9109 C   0  0  0  0  0  0  0  0  0  0  0  0
  -30.0238    3.3674  -33.3443 C   0  0  0  0  0  0  0  0  0  0  0  0
  -30.0737    6.9107  -31.5741 C   0  0  0  0  0  0  0  0  0  0  0  0
  -29.8187    7.1673  -30.1654 C   0  0  0  0  0  0  0  0  0  0  0  0
  -29.3564    5.6493  -32.1533 C   0  0  0  0  0  0  0  0  0  0  0  0
  -28.7206   -1.3762  -32.9766 C   0  0  0  0  0  0  0  0  0  0  0  0
  -27.4845   -0.7577  -32.6551 C   0  0  0  0  0  0  0  0  0  0  0  0
  -26.5698   -0.4848  -33.8331 C   0  0  0  0  0  0  0  0  0  0  0  0
  -26.3965    8.6629  -32.8102 C   0  0  0  0  0  0  0  0  0  0  0  0
  -26.0994   10.5691  -32.7466 C   0  0  0  0  0  0  0  0  0  0  0  0
  -25.1309   -0.5493  -33.4699 C   0  0  0  0  0  0  0  0  0  0  0  0
  -25.2030    7.8554  -32.4688 C   0  0  0  0  0  0  0  0  0  0  0  0
  -24.6136   -0.8511  -32.1564 C   0  0  0  0  0  0  0  0  0  0  0  0
  -24.7023    6.9444  -33.5127 C   0  0  0  0  0  0  0  0  0  0  0  0
  -23.3335   -0.4944  -31.7692 C   0  0  0  0  0  0  0  0  0  0  0  0
  -23.2464    7.1123  -33.9402 C   0  0  0  0  0  0  0  0  0  0  0  0
  -23.1891    7.6884  -35.3331 C   0  0  0  0  0  0  0  0  0  0  0  0
  -22.8405    2.4293  -30.4690 C   0  0  0  0  0  0  0  0  0  0  0  0
  -22.4851    1.0144  -29.8761 C   0  0  0  0  0  0  0  0  0  0  0  0
  -22.5374    5.7753  -34.0958 C   0  0  0  0  0  0  0  0  0  0  0  0
  -21.9687    3.2148  -31.3723 C   0  0  0  0  0  0  0  0  0  0  0  0
  -21.9758    5.1510  -32.8460 C   0  0  0  0  0  0  0  0  0  0  0  0
  -21.7995    7.3043  -35.7871 C   0  0  0  0  0  0  0  0  0  0  0  0
  -21.5816   -1.4422  -30.2803 C   0  0  0  0  0  0  0  0  0  0  0  0
  -20.2885   -0.7858  -29.7599 C   0  0  0  0  0  0  0  0  0  0  0  0
  -19.9773   -4.2028  -30.0995 C   0  0  0  0  0  0  0  0  0  0  0  0
  -19.2930   -0.7763  -27.1775 C   0  0  0  0  0  0  0  0  0  0  0  0
  -18.9894   -3.0883  -30.1646 C   0  0  0  0  0  0  0  0  0  0  0  0
  -19.1853   -1.7982  -29.3642 C   0  0  0  0  0  0  0  0  0  0  0  0
  -30.3712   -2.2133  -35.8696 O   0  0  0  0  0  0  0  0  0  0  0  0
  -28.9814   -1.7764  -34.2237 O   0  0  0  0  0  0  0  0  0  0  0  0
  -28.9655    3.4764  -34.2079 O   0  0  0  0  0  0  0  0  0  0  0  0
  -28.5929    6.1472  -33.2405 O   0  0  0  0  0  0  0  0  0  0  0  0
  -28.4603    4.9951  -31.3087 O   0  0  0  0  0  0  0  0  0  0  0  0
  -26.9375    0.7705  -34.3229 O   0  0  0  0  0  0  0  0  0  0  0  0
  -23.8041    2.9270  -30.0296 O   0  0  0  0  0  0  0  0  0  0  0  0
  -21.5948    6.0374  -35.1531 O   0  0  0  0  0  0  0  0  0  0  0  0
  -21.1840   -3.9631  -29.6397 O   0  0  0  0  0  0  0  0  0  0  0  0
  -19.2152   -1.9846  -27.9574 O   0  0  0  0  0  0  0  0  0  0  0  0
  -22.7636   -0.4949  -30.3655 N   0  0  0  0  0  0  0  0  0  0  0  0
  -22.6269    4.1992  -32.1716 N   0  0  0  0  0  0  0  0  0  0  0  0
  -21.9200   -2.7185  -29.5825 N   0  0  0  0  0  0  0  0  0  0  0  0
  1  3  1  0
  2 10  1  0
  3  7  1  0
  3  9  1  0
  4 37  1  0
  5  7  2  3
  5  8  1  0
  6  9  1  0
  6 12  1  0
  8 37  1  0
  8 38  1  0
  9 39  1  0
 10 11  1  0
 10 12  1  0
 12 40  1  0
 12 41  1  0
 13 14  2  3
 13 38  1  0
 14 15  1  0
 15 18  1  0
 15 42  1  0
 16 17  1  0
 16 19  1  0
 18 20  1  0
 19 21  1  0
 20 22  2  3
 21 23  1  0
 22 47  1  0
 23 24  1  0
 23 27  1  0
 24 30  1  0
 25 26  1  0
 25 28  1  0
 25 43  2  0
 26 47  1  0
 27 29  1  0
 27 44  1  0
 28 48  2  3
 29 48  1  0
 30 44  1  0
 31 32  1  0
 31 47  1  0
 31 49  1  0
 32 36  1  0
 33 35  1  0
 33 45  1  0
 34 46  1  0
 35 36  1  0
 36 46  1  0
 45 49  1  0
M  END
$$$$

     RDKit          3D

 42 47  0  0  0  0  0  0  0  0999 V2000
  -32.0694    6.4864  -34.3324 C   0  0  0  0  0  0  0  0  0  0  0  0
  -31.8691    0.6819  -34.5458 C   0  0  0  0  0  0  0  0  0  0  0  0
  -31.6015    1.9022  -33.9612 C   0  0  0  0  0  0  0  0  0  0  0  0
  -30.9960    4.4640  -33.0188 C   0  0  0  0  0  0  0  0  0  0  0  0
  -30.8341   -0.2662  -34.7911 C   0  0  0  0  0  0  0  0  0  0  0  0
  -30.5301    5.7491  -32.7709 C   0  0  0  0  0  0  0  0  0  0  0  0
  -30.2776    2.2415  -33.6510 C   0  0  0  0  0  0  0  0  0  0  0  0
  -29.5084    0.1481  -34.5703 C   0  0  0  0  0  0  0  0  0  0  0  0
  -29.2343    1.4135  -34.0170 C   0  0  0  0  0  0  0  0  0  0  0  0
  -25.8737    1.7759  -32.5039 C   0  0  0  0  0  0  0  0  0  0  0  0
  -25.4152    3.0841  -32.7490 C   0  0  0  0  0  0  0  0  0  0  0  0
  -25.0847    0.8961  -31.7911 C   0  0  0  0  0  0  0  0  0  0  0  0
  -24.1627    3.4809  -32.2493 C   0  0  0  0  0  0  0  0  0  0  0  0
  -23.8310    1.2662  -31.3333 C   0  0  0  0  0  0  0  0  0  0  0  0
  -23.3596    2.5769  -31.5781 C   0  0  0  0  0  0  0  0  0  0  0  0
  -22.9564    0.3059  -30.5927 C   0  0  0  0  0  0  0  0  0  0  0  0
  -22.3143    4.5084  -29.2661 C   0  0  0  0  0  0  0  0  0  0  0  0
  -22.4180    4.6666  -27.8814 C   0  0  0  0  0  0  0  0  0  0  0  0
  -21.9836    2.1598  -28.9103 C   0  0  0  0  0  0  0  0  0  0  0  0
  -22.0616    3.2267  -29.7788 C   0  0  0  0  0  0  0  0  0  0  0  0
  -22.1989    3.5984  -27.0241 C   0  0  0  0  0  0  0  0  0  0  0  0
  -21.8745    2.3550  -27.5638 C   0  0  0  0  0  0  0  0  0  0  0  0
  -21.6709   -2.5262  -30.7789 C   0  0  0  0  0  0  0  0  0  0  0  0
  -21.1867   -1.2688  -31.0594 C   0  0  0  0  0  0  0  0  0  0  0  0
  -21.0948    2.4478  -33.3249 C   0  0  0  0  0  0  0  0  0  0  0  0
  -20.9759    2.7622  -31.9838 C   0  0  0  0  0  0  0  0  0  0  0  0
  -20.8328   -3.5463  -30.3777 C   0  0  0  0  0  0  0  0  0  0  0  0
  -19.9941    2.4758  -34.1989 C   0  0  0  0  0  0  0  0  0  0  0  0
  -19.8258   -1.0176  -30.8566 C   0  0  0  0  0  0  0  0  0  0  0  0
  -19.4721   -3.3118  -30.2462 C   0  0  0  0  0  0  0  0  0  0  0  0
  -19.6911    3.0788  -31.4838 C   0  0  0  0  0  0  0  0  0  0  0  0
  -18.9721   -2.0591  -30.4705 C   0  0  0  0  0  0  0  0  0  0  0  0
  -18.7164    2.7924  -33.6991 C   0  0  0  0  0  0  0  0  0  0  0  0
  -18.5587    3.1253  -32.3585 C   0  0  0  0  0  0  0  0  0  0  0  0
  -29.9647    3.4271  -32.9644 O   0  0  0  0  0  0  0  0  0  0  0  0
  -27.3744   -0.0087  -32.6238 O   0  0  0  0  0  0  0  0  0  0  0  0
  -22.0397   -0.2741  -31.5200 O   0  0  0  0  0  0  0  0  0  0  0  0
  -22.1882    0.9093  -29.4748 O   0  0  0  0  0  0  0  0  0  0  0  0
  -31.0193    5.5887  -34.1160 N   0  0  0  0  0  0  0  0  0  0  0  0
  -27.9512    1.8613  -33.8345 N   0  0  0  0  0  0  0  0  0  0  0  0
  -27.0861    1.2203  -32.9566 N   0  0  0  0  0  0  0  0  0  0  0  0
  -22.0829    2.9366  -31.1387 N   0  0  0  0  0  0  0  0  0  0  0  0
  1 39  1  0
  2  3  2  0
  2  5  1  0
  3  7  1  0
  4  6  1  0
  4 35  1  0
  5  8  2  0
  6 39  1  0
  7  9  2  0
  7 35  1  0
  8  9  1  0
  9 40  1  0
 10 11  1  0
 10 12  2  0
 10 41  1  0
 11 13  1  0
 12 14  1  0
 13 15  2  0
 14 15  1  0
 14 16  1  0
 15 42  1  0
 16 37  1  0
 16 38  1  0
 17 18  1  0
 17 20  2  0
 18 21  1  0
 19 20  1  0
 19 22  1  0
 19 38  1  0
 20 42  1  0
 21 22  2  0
 23 24  2  0
 23 27  1  0
 24 29  1  0
 24 37  1  0
 25 26  2  0
 25 28  1  0
 26 31  1  0
 26 42  1  0
 27 30  1  0
 28 33  1  0
 29 32  1  0
 30 32  2  0
 31 34  1  0
 33 34  2  0
 36 41  1  0
 40 41  1  0
M  END
$$$$

     RDKit          3D

 42 47  0  0  0  0  0  0  0  0999 V2000
  -31.7456   -1.4305  -37.0866 C   0  0  0  0  0  0  0  0  0  0  0  0
  -31.4816   -0.1650  -36.6056 C   0  0  0  0  0  0  0  0  0  0  0  0
  -31.1987   -2.5666  -36.4939 C   0  0  0  0  0  0  0  0  0  0  0  0
  -30.6874   -0.0577  -35.4821 C   0  0  0  0  0  0  0  0  0  0  0  0
  -30.3642   -2.4539  -35.4014 C   0  0  0  0  0  0  0  0  0  0  0  0
  -30.1209   -1.1576  -34.8720 C   0  0  0  0  0  0  0  0  0  0  0  0
  -29.5488    0.4807  -33.2539 C   0  0  0  0  0  0  0  0  0  0  0  0
  -29.3152   -0.8991  -33.6780 C   0  0  0  0  0  0  0  0  0  0  0  0
  -28.4622    1.4686  -33.3707 C   0  0  0  0  0  0  0  0  0  0  0  0
  -28.3998   -1.7111  -33.0482 C   0  0  0  0  0  0  0  0  0  0  0  0
  -27.5138    1.1463  -32.2887 C   0  0  0  0  0  0  0  0  0  0  0  0
  -26.3504    1.4225  -34.9800 C   0  0  0  0  0  0  0  0  0  0  0  0
  -25.9509    2.7274  -35.6733 C   0  0  0  0  0  0  0  0  0  0  0  0
  -25.7045    1.1402  -33.7175 C   0  0  0  0  0  0  0  0  0  0  0  0
  -24.2128    1.2669  -33.7239 C   0  0  0  0  0  0  0  0  0  0  0  0
  -24.4371    2.8086  -35.7386 C   0  0  0  0  0  0  0  0  0  0  0  0
  -23.6077    1.0294  -32.3547 C   0  0  0  0  0  0  0  0  0  0  0  0
  -23.6372    2.0233  -31.3774 C   0  0  0  0  0  0  0  0  0  0  0  0
  -23.0197   -0.1977  -32.0832 C   0  0  0  0  0  0  0  0  0  0  0  0
  -22.9565    1.8297  -30.1555 C   0  0  0  0  0  0  0  0  0  0  0  0
  -22.8632    2.8464  -29.1822 C   0  0  0  0  0  0  0  0  0  0  0  0
  -22.3230    0.5830  -29.8984 C   0  0  0  0  0  0  0  0  0  0  0  0
  -22.1245    2.5896  -28.0062 C   0  0  0  0  0  0  0  0  0  0  0  0
  -21.9952    3.5623  -26.9812 C   0  0  0  0  0  0  0  0  0  0  0  0
  -21.5585    1.3005  -27.8148 C   0  0  0  0  0  0  0  0  0  0  0  0
  -21.4342    3.2269  -25.7603 C   0  0  0  0  0  0  0  0  0  0  0  0
  -21.4481    4.3724  -32.4033 C   0  0  0  0  0  0  0  0  0  0  0  0
  -20.9628    0.9760  -26.5895 C   0  0  0  0  0  0  0  0  0  0  0  0
  -21.1818    3.2512  -33.1803 C   0  0  0  0  0  0  0  0  0  0  0  0
  -20.9234    1.9328  -25.5186 C   0  0  0  0  0  0  0  0  0  0  0  0
  -20.8182    4.5735  -31.1859 C   0  0  0  0  0  0  0  0  0  0  0  0
  -20.2364    2.3733  -32.7070 C   0  0  0  0  0  0  0  0  0  0  0  0
  -19.9500    3.5552  -30.7584 C   0  0  0  0  0  0  0  0  0  0  0  0
  -18.7944    1.4358  -31.0331 C   0  0  0  0  0  0  0  0  0  0  0  0
  -21.9824    4.1222  -35.4408 O   0  0  0  0  0  0  0  0  0  0  0  0
  -21.4532    1.5960  -35.1903 O   0  0  0  0  0  0  0  0  0  0  0  0
  -26.3436    0.5590  -32.7204 N   0  0  0  0  0  0  0  0  0  0  0  0
  -23.7210    2.5081  -34.5070 N   0  0  0  0  0  0  0  0  0  0  0  0
  -22.3859   -0.4047  -30.8560 N   0  0  0  0  0  0  0  0  0  0  0  0
  -21.5958    0.3509  -28.8031 N   0  0  0  0  0  0  0  0  0  0  0  0
  -19.6869    2.4676  -31.5101 N   0  0  0  0  0  0  0  0  0  0  0  0
  -22.0527    2.8923  -34.6225 P   0  0  0  0  0  0  0  0  0  0  0  0
  1  2  1  0
  1  3  1  0
  2  4  2  0
  3  5  2  0
  4  6  1  0
  5  6  1  0
  6  8  1  0
  7  8  1  0
  7  9  1  0
  8 10  2  0
  9 11  1  0
 11 37  1  0
 12 13  1  0
 12 14  1  0
 13 16  1  0
 14 15  1  0
 14 37  1  0
 15 17  1  0
 15 38  1  0
 16 38  1  0
 17 18  1  0
 17 19  2  0
 18 20  2  0
 19 39  1  0
 20 21  1  0
 20 22  1  0
 21 23  2  0
 22 39  1  0
 22 40  2  0
 23 24  1  0
 23 25  1  0
 24 26  2  0
 25 28  2  0
 25 40  1  0
 26 30  1  0
 27 29  1  0
 27 31  1  0
 28 30  1  0
 29 32  2  0
 29 42  1  0
 31 33  2  0
 32 41  1  0
 33 41  1  0
 34 41  1  0
 35 42  1  0
 36 42  1  0
 38 42  1  0
M  END
$$$$

     RDKit          3D

 35 39  0  0  0  0  0  0  0  0999 V2000
  -30.8449    0.1717  -36.3788 C   0  0  0  0  0  0  0  0  0  0  0  0
  -29.9148   -1.2705  -34.5173 C   0  0  0  0  0  0  0  0  0  0  0  0
  -29.8799   -0.0670  -35.2514 C   0  0  0  0  0  0  0  0  0  0  0  0
  -28.9707   -1.4950  -33.4910 C   0  0  0  0  0  0  0  0  0  0  0  0
  -28.8952    0.9049  -34.9425 C   0  0  0  0  0  0  0  0  0  0  0  0
  -27.9772   -0.5461  -33.1892 C   0  0  0  0  0  0  0  0  0  0  0  0
  -27.9787    0.6673  -33.8820 C   0  0  0  0  0  0  0  0  0  0  0  0
  -25.7346   -0.4790  -31.8852 C   0  0  0  0  0  0  0  0  0  0  0  0
  -24.8884   -1.3678  -31.2073 C   0  0  0  0  0  0  0  0  0  0  0  0
  -23.8932    1.0379  -31.9740 C   0  0  0  0  0  0  0  0  0  0  0  0
  -23.8513    3.2365  -33.2365 C   0  0  0  0  0  0  0  0  0  0  0  0
  -23.9330    5.5298  -34.1205 C   0  0  0  0  0  0  0  0  0  0  0  0
  -23.5083   -1.0540  -31.0157 C   0  0  0  0  0  0  0  0  0  0  0  0
  -23.2677    2.3156  -32.2974 C   0  0  0  0  0  0  0  0  0  0  0  0
  -23.0469    6.7326  -34.1065 C   0  0  0  0  0  0  0  0  0  0  0  0
  -22.9764    7.2856  -32.6794 C   0  0  0  0  0  0  0  0  0  0  0  0
  -22.4727    4.9039  -32.1650 C   0  0  0  0  0  0  0  0  0  0  0  0
  -22.2734    6.3231  -31.7747 C   0  0  0  0  0  0  0  0  0  0  0  0
  -21.6639    3.9148  -31.5273 C   0  0  0  0  0  0  0  0  0  0  0  0
  -20.7159    1.1991  -28.7133 C   0  0  0  0  0  0  0  0  0  0  0  0
  -20.7548    2.6954  -28.9633 C   0  0  0  0  0  0  0  0  0  0  0  0
  -19.8889    3.1837  -30.1159 C   0  0  0  0  0  0  0  0  0  0  0  0
  -19.5401    0.5403  -29.2046 C   0  0  0  0  0  0  0  0  0  0  0  0
  -19.3870    2.1112  -31.0916 C   0  0  0  0  0  0  0  0  0  0  0  0
  -18.9860   -0.7070  -28.6259 C   0  0  0  0  0  0  0  0  0  0  0  0
  -18.9107    1.0038  -30.4904 C   0  0  0  0  0  0  0  0  0  0  0  0
  -30.4845    0.7197  -37.3935 O   0  0  0  0  0  0  0  0  0  0  0  0
  -24.7759    2.9523  -34.0069 O   0  0  0  0  0  0  0  0  0  0  0  0
  -20.5851    4.2397  -30.8496 O   0  0  0  0  0  0  0  0  0  0  0  0
  -32.1008   -0.3245  -36.3312 N   0  0  0  0  0  0  0  0  0  0  0  0
  -27.0862   -0.8035  -32.0641 N   0  0  0  0  0  0  0  0  0  0  0  0
  -25.2020    0.7006  -32.2560 N   0  0  0  0  0  0  0  0  0  0  0  0
  -23.3870    4.5296  -33.1706 N   0  0  0  0  0  0  0  0  0  0  0  0
  -23.0037    0.1459  -31.4222 N   0  0  0  0  0  0  0  0  0  0  0  0
  -22.1326    2.6260  -31.6127 N   0  0  0  0  0  0  0  0  0  0  0  0
  1  3  1  0
  1 27  2  0
  1 30  1  0
  2  3  2  0
  2  4  1  0
  3  5  1  0
  4  6  2  0
  5  7  2  0
  6  7  1  0
  6 31  1  0
  8  9  1  0
  8 31  1  0
  8 32  2  0
  9 13  1  0
 10 14  1  0
 10 32  1  0
 10 34  1  0
 11 14  1  0
 11 28  2  0
 11 33  1  0
 12 15  1  0
 12 33  1  0
 13 34  2  0
 14 35  1  0
 15 16  1  0
 16 18  1  0
 17 18  1  0
 17 19  1  0
 17 33  1  0
 19 29  1  0
 19 35  2  0
 20 21  1  0
 20 23  1  0
 21 22  1  0
 22 24  1  0
 22 29  1  0
 23 25  1  0
 23 26  2  0
 24 26  1  0
M  END
$$$$

     RDKit          3D

 53 59  0  0  0  0  0  0  0  0999 V2000
  -30.9602    0.3950  -33.3303 C   0  0  0  0  0  0  0  0  0  0  0  0
  -30.1401   -0.8683  -34.9896 C   0  0  0  0  0  0  0  0  0  0  0  0
  -29.8817   -0.4243  -33.7088 C   0  0  0  0  0  0  0  0  0  0  0  0
  -28.5392   -0.5528  -33.0035 C   0  0  0  0  0  0  0  0  0  0  0  0
  -28.3031   -1.5608  -32.0280 C   0  0  0  0  0  0  0  0  0  0  0  0
  -28.2187    3.5599  -34.2045 C   0  0  0  0  0  0  0  0  0  0  0  0
  -28.1839    5.9045  -34.8530 C   0  0  0  0  0  0  0  0  0  0  0  0
  -27.4681    0.3316  -33.2748 C   0  0  0  0  0  0  0  0  0  0  0  0
  -27.4418    1.3152  -34.4060 C   0  0  0  0  0  0  0  0  0  0  0  0
  -27.2653    3.7818  -33.2042 C   0  0  0  0  0  0  0  0  0  0  0  0
  -27.0856   -1.5941  -31.2808 C   0  0  0  0  0  0  0  0  0  0  0  0
  -27.1094    6.1221  -33.8714 C   0  0  0  0  0  0  0  0  0  0  0  0
  -26.6980    5.0319  -33.0226 C   0  0  0  0  0  0  0  0  0  0  0  0
  -26.3004    0.3070  -32.4940 C   0  0  0  0  0  0  0  0  0  0  0  0
  -26.0694   -0.6570  -31.5444 C   0  0  0  0  0  0  0  0  0  0  0  0
  -25.7801    5.1758  -31.8350 C   0  0  0  0  0  0  0  0  0  0  0  0
  -25.1563    5.6763  -36.0492 C   0  0  0  0  0  0  0  0  0  0  0  0
  -25.0130    6.8476  -35.2646 C   0  0  0  0  0  0  0  0  0  0  0  0
  -24.5622    4.2014  -31.7762 C   0  0  0  0  0  0  0  0  0  0  0  0
  -24.4095    2.9365  -31.0605 C   0  0  0  0  0  0  0  0  0  0  0  0
  -24.2220    5.3221  -37.0381 C   0  0  0  0  0  0  0  0  0  0  0  0
  -23.8643    7.6038  -35.4647 C   0  0  0  0  0  0  0  0  0  0  0  0
  -23.6246   -0.6797  -31.6261 C   0  0  0  0  0  0  0  0  0  0  0  0
  -23.0765    6.0422  -37.1733 C   0  0  0  0  0  0  0  0  0  0  0  0
  -22.9116    7.1905  -36.3716 C   0  0  0  0  0  0  0  0  0  0  0  0
  -22.3633   -0.7550  -30.7093 C   0  0  0  0  0  0  0  0  0  0  0  0
  -22.3432    4.9565  -32.6484 C   0  0  0  0  0  0  0  0  0  0  0  0
  -22.4440    6.4680  -32.3664 C   0  0  0  0  0  0  0  0  0  0  0  0
  -21.2093    0.2389  -31.0840 C   0  0  0  0  0  0  0  0  0  0  0  0
  -21.3767    1.2336  -32.0691 C   0  0  0  0  0  0  0  0  0  0  0  0
  -21.0137    0.8860  -26.2624 C   0  0  0  0  0  0  0  0  0  0  0  0
  -20.9464    0.5264  -27.5854 C   0  0  0  0  0  0  0  0  0  0  0  0
  -20.5308    3.3084  -33.2745 C   0  0  0  0  0  0  0  0  0  0  0  0
  -20.3729    2.1934  -32.2536 C   0  0  0  0  0  0  0  0  0  0  0  0
  -20.0119    0.2282  -30.3391 C   0  0  0  0  0  0  0  0  0  0  0  0
  -20.1487    0.3663  -25.3337 C   0  0  0  0  0  0  0  0  0  0  0  0
  -19.9575   -0.3642  -28.0379 C   0  0  0  0  0  0  0  0  0  0  0  0
  -19.0400   -0.8956  -27.0972 C   0  0  0  0  0  0  0  0  0  0  0  0
  -19.1288   -0.5293  -25.7659 C   0  0  0  0  0  0  0  0  0  0  0  0
  -18.9973    1.1738  -30.5799 C   0  0  0  0  0  0  0  0  0  0  0  0
  -19.1717    2.1601  -31.5171 C   0  0  0  0  0  0  0  0  0  0  0  0
  -26.3997    1.3733  -35.1028 O   0  0  0  0  0  0  0  0  0  0  0  0
  -26.4338    8.4614  -34.0910 O   0  0  0  0  0  0  0  0  0  0  0  0
  -24.8659   -0.6379  -30.8107 O   0  0  0  0  0  0  0  0  0  0  0  0
  -31.9509    0.3213  -34.3164 N   0  0  0  0  0  0  0  0  0  0  0  0
  -31.3772   -0.4656  -35.4041 N   0  0  0  0  0  0  0  0  0  0  0  0
  -28.7425    4.5949  -34.8800 N   0  0  0  0  0  0  0  0  0  0  0  0
  -28.4429    2.2532  -34.5466 N   0  0  0  0  0  0  0  0  0  0  0  0
  -26.1614    7.2042  -34.3326 N   0  0  0  0  0  0  0  0  0  0  0  0
  -23.5397    4.3033  -32.8465 N   0  0  0  0  0  0  0  0  0  0  0  0
  -21.1240    4.4949  -32.6526 N   0  0  0  0  0  0  0  0  0  0  0  0
  -19.7831   -0.7042  -29.3686 N   0  0  0  0  0  0  0  0  0  0  0  0
  -18.0715   -0.8805  -24.3940 Cl  0  0  0  0  0  0  0  0  0  0  0  0
  1  3  1  0
  1 45  1  0
  2  3  1  0
  2 46  1  0
  3  4  1  0
  4  5  2  0
  4  8  1  0
  5 11  1  0
  6 10  2  0
  6 47  1  0
  6 48  1  0
  7 12  1  0
  7 47  2  0
  8  9  1  0
  8 14  2  0
  9 42  2  0
  9 48  1  0
 10 13  1  0
 11 15  2  0
 12 13  1  0
 12 49  1  0
 13 16  1  0
 14 15  1  0
 15 44  1  0
 16 19  1  0
 17 18  2  0
 17 21  1  0
 18 22  1  0
 18 49  1  0
 19 20  1  0
 19 50  1  0
 21 24  2  0
 22 25  2  0
 23 26  1  0
 23 44  1  0
 24 25  1  0
 26 29  1  0
 27 28  1  0
 27 50  2  3
 27 51  1  0
 29 30  1  0
 29 35  2  0
 30 34  2  0
 31 32  2  0
 31 36  1  0
 32 37  1  0
 33 34  1  0
 33 51  1  0
 34 41  1  0
 35 40  1  0
 35 52  1  0
 36 39  2  0
 37 38  2  0
 37 52  1  0
 38 39  1  0
 39 53  1  0
 40 41  2  0
 43 49  1  0
 45 46  1  0
M  END
$$$$

     RDKit          3D

 43 49  0  0  0  0  0  0  0  0999 V2000
  -30.4224    1.0896  -36.7901 C   0  0  0  0  0  0  0  0  0  0  0  0
  -30.1137    0.8737  -35.4274 C   0  0  0  0  0  0  0  0  0  0  0  0
  -29.7404    2.0793  -37.4766 C   0  0  0  0  0  0  0  0  0  0  0  0
  -29.1907    1.6686  -34.8143 C   0  0  0  0  0  0  0  0  0  0  0  0
  -28.7447    2.8673  -36.8433 C   0  0  0  0  0  0  0  0  0  0  0  0
  -28.7893    4.5034  -33.0272 C   0  0  0  0  0  0  0  0  0  0  0  0
  -28.4683    2.6319  -35.4838 C   0  0  0  0  0  0  0  0  0  0  0  0
  -28.4034    5.3642  -31.9846 C   0  0  0  0  0  0  0  0  0  0  0  0
  -27.6267    4.1293  -33.7206 C   0  0  0  0  0  0  0  0  0  0  0  0
  -26.5879    4.7594  -33.1053 C   0  0  0  0  0  0  0  0  0  0  0  0
  -26.1306    3.0941  -35.2358 C   0  0  0  0  0  0  0  0  0  0  0  0
  -25.2763    4.5871  -33.5495 C   0  0  0  0  0  0  0  0  0  0  0  0
  -25.0429    3.7211  -34.6109 C   0  0  0  0  0  0  0  0  0  0  0  0
  -23.9821    6.6100  -33.2042 C   0  0  0  0  0  0  0  0  0  0  0  0
  -23.6503    3.5561  -35.1190 C   0  0  0  0  0  0  0  0  0  0  0  0
  -23.4975    3.6021  -31.2691 C   0  0  0  0  0  0  0  0  0  0  0  0
  -23.3082    4.7469  -32.1117 C   0  0  0  0  0  0  0  0  0  0  0  0
  -22.7166    6.9735  -32.5219 C   0  0  0  0  0  0  0  0  0  0  0  0
  -22.4898    1.6726  -30.2720 C   0  0  0  0  0  0  0  0  0  0  0  0
  -22.3410    3.0030  -30.7088 C   0  0  0  0  0  0  0  0  0  0  0  0
  -22.1326    5.6587  -32.1322 C   0  0  0  0  0  0  0  0  0  0  0  0
  -21.2855   -0.4551  -30.6425 C   0  0  0  0  0  0  0  0  0  0  0  0
  -21.2218    0.8900  -30.0227 C   0  0  0  0  0  0  0  0  0  0  0  0
  -20.6575   -3.5076  -30.5657 C   0  0  0  0  0  0  0  0  0  0  0  0
  -19.9979    1.6833  -30.5544 C   0  0  0  0  0  0  0  0  0  0  0  0
  -20.0334    3.1165  -30.1391 C   0  0  0  0  0  0  0  0  0  0  0  0
  -19.8530   -4.7501  -30.8414 C   0  0  0  0  0  0  0  0  0  0  0  0
  -19.6800   -2.3798  -30.6280 C   0  0  0  0  0  0  0  0  0  0  0  0
  -18.8035   -0.4160  -30.4362 C   0  0  0  0  0  0  0  0  0  0  0  0
  -18.7055    1.0215  -30.1668 C   0  0  0  0  0  0  0  0  0  0  0  0
  -24.6134    3.1677  -31.0145 O   0  0  0  0  0  0  0  0  0  0  0  0
  -23.2293    4.1741  -36.1258 O   0  0  0  0  0  0  0  0  0  0  0  0
  -22.9297    2.7847  -34.4786 O   0  0  0  0  0  0  0  0  0  0  0  0
  -22.2183   -0.9121  -31.3366 O   0  0  0  0  0  0  0  0  0  0  0  0
  -27.4319    3.3143  -34.8380 N   0  0  0  0  0  0  0  0  0  0  0  0
  -27.0157    5.4882  -32.0660 N   0  0  0  0  0  0  0  0  0  0  0  0
  -24.2658    5.2595  -32.9124 N   0  0  0  0  0  0  0  0  0  0  0  0
  -21.2157    3.7350  -30.4617 N   0  0  0  0  0  0  0  0  0  0  0  0
  -20.0133   -1.0819  -30.5824 N   0  0  0  0  0  0  0  0  0  0  0  0
  -18.3622   -2.5357  -30.6119 N   0  0  0  0  0  0  0  0  0  0  0  0
  -17.8187   -1.2857  -30.5248 N   0  0  0  0  0  0  0  0  0  0  0  0
  -18.9590    3.7749  -30.5116 F   0  0  0  0  0  0  0  0  0  0  0  0
  -30.7039   -0.4105  -34.5157 Cl  0  0  0  0  0  0  0  0  0  0  0  0
  1  2  2  0
  1  3  1  0
  2  4  1  0
  2 43  1  0
  3  5  2  0
  4  7  2  0
  5  7  1  0
  6  8  1  0
  6  9  1  0
  7 35  1  0
  8 36  1  0
  9 10  2  0
  9 35  1  0
 10 12  1  0
 10 36  1  0
 11 13  1  0
 11 35  1  0
 12 13  2  0
 12 37  1  0
 13 15  1  0
 14 18  1  0
 14 37  1  0
 15 32  2  0
 15 33  1  0
 16 17  1  0
 16 20  1  0
 16 31  2  0
 17 21  1  0
 17 37  1  0
 18 21  1  0
 19 20  1  0
 19 23  1  0
 20 38  1  0
 22 23  1  0
 22 34  2  0
 22 39  1  0
 23 25  1  0
 24 27  1  0
 24 28  1  0
 25 26  1  0
 25 30  1  0
 26 38  1  0
 26 42  1  0
 28 39  1  0
 28 40  2  0
 29 30  1  0
 29 39  1  0
 29 41  2  0
 40 41  1  0
M  END
$$$$

     RDKit          3D

 51 57  0  0  0  0  0  0  0  0999 V2000
  -31.9659    0.1883  -36.3553 C   0  0  0  0  0  0  0  0  0  0  0  0
  -31.5320   -4.2844  -37.9717 C   0  0  0  0  0  0  0  0  0  0  0  0
  -31.3895   -1.0893  -36.1872 C   0  0  0  0  0  0  0  0  0  0  0  0
  -31.2886    1.2917  -35.7886 C   0  0  0  0  0  0  0  0  0  0  0  0
  -31.0109   -3.1861  -37.1915 C   0  0  0  0  0  0  0  0  0  0  0  0
  -30.6095   -5.3977  -38.3599 C   0  0  0  0  0  0  0  0  0  0  0  0
  -30.3334   -1.2778  -35.3444 C   0  0  0  0  0  0  0  0  0  0  0  0
  -30.2025    1.1018  -34.9455 C   0  0  0  0  0  0  0  0  0  0  0  0
  -29.7479   -0.2026  -34.6966 C   0  0  0  0  0  0  0  0  0  0  0  0
  -28.8222   -1.3572  -32.7354 C   0  0  0  0  0  0  0  0  0  0  0  0
  -28.6697   -0.4711  -33.7848 C   0  0  0  0  0  0  0  0  0  0  0  0
  -27.7829   -1.6052  -31.8410 C   0  0  0  0  0  0  0  0  0  0  0  0
  -27.5554    7.4252  -31.2356 C   0  0  0  0  0  0  0  0  0  0  0  0
  -27.4418    0.1357  -34.0164 C   0  0  0  0  0  0  0  0  0  0  0  0
  -27.0811    6.1361  -31.8996 C   0  0  0  0  0  0  0  0  0  0  0  0
  -26.5532   -1.0033  -32.0736 C   0  0  0  0  0  0  0  0  0  0  0  0
  -26.3897   -0.1288  -33.1476 C   0  0  0  0  0  0  0  0  0  0  0  0
  -26.3349    8.2238  -30.8915 C   0  0  0  0  0  0  0  0  0  0  0  0
  -25.1381    0.5647  -33.4018 C   0  0  0  0  0  0  0  0  0  0  0  0
  -25.0879    7.3583  -31.1606 C   0  0  0  0  0  0  0  0  0  0  0  0
  -24.7434    4.2299  -33.2899 C   0  0  0  0  0  0  0  0  0  0  0  0
  -24.8610    5.7012  -33.0721 C   0  0  0  0  0  0  0  0  0  0  0  0
  -24.4364    7.0009  -29.8193 C   0  0  0  0  0  0  0  0  0  0  0  0
  -23.4751    2.1459  -32.7041 C   0  0  0  0  0  0  0  0  0  0  0  0
  -23.4703    3.6163  -32.8440 C   0  0  0  0  0  0  0  0  0  0  0  0
  -22.9237    0.7634  -30.6001 C   0  0  0  0  0  0  0  0  0  0  0  0
  -22.9119    6.7197  -29.9789 C   0  0  0  0  0  0  0  0  0  0  0  0
  -22.4838   -0.5353  -31.2403 C   0  0  0  0  0  0  0  0  0  0  0  0
  -22.4742    5.5578  -27.2577 C   0  0  0  0  0  0  0  0  0  0  0  0
  -22.4166    4.2902  -30.6281 C   0  0  0  0  0  0  0  0  0  0  0  0
  -22.3579    4.8435  -28.4464 C   0  0  0  0  0  0  0  0  0  0  0  0
  -22.2778    4.9011  -26.0768 C   0  0  0  0  0  0  0  0  0  0  0  0
  -22.0311    3.4812  -28.5152 C   0  0  0  0  0  0  0  0  0  0  0  0
  -21.7373    1.8205  -30.4590 C   0  0  0  0  0  0  0  0  0  0  0  0
  -21.7727    2.7860  -27.2739 C   0  0  0  0  0  0  0  0  0  0  0  0
  -21.9274    3.5238  -26.0659 C   0  0  0  0  0  0  0  0  0  0  0  0
  -21.3783   -1.1902  -30.4640 C   0  0  0  0  0  0  0  0  0  0  0  0
  -20.8753   -2.4451  -30.8572 C   0  0  0  0  0  0  0  0  0  0  0  0
  -20.8132   -0.5626  -29.3380 C   0  0  0  0  0  0  0  0  0  0  0  0
  -19.9281   -3.0684  -30.1030 C   0  0  0  0  0  0  0  0  0  0  0  0
  -19.8072   -1.1923  -28.6105 C   0  0  0  0  0  0  0  0  0  0  0  0
  -19.3394   -2.4428  -28.9992 C   0  0  0  0  0  0  0  0  0  0  0  0
  -32.8454   -4.3369  -38.2129 O   0  0  0  0  0  0  0  0  0  0  0  0
  -31.8584   -2.1991  -36.8705 O   0  0  0  0  0  0  0  0  0  0  0  0
  -24.4313    0.2459  -34.3713 O   0  0  0  0  0  0  0  0  0  0  0  0
  -25.6225    6.1904  -31.9485 N   0  0  0  0  0  0  0  0  0  0  0  0
  -24.7799    1.5798  -32.6093 N   0  0  0  0  0  0  0  0  0  0  0  0
  -22.6030    4.4035  -32.0245 N   0  0  0  0  0  0  0  0  0  0  0  0
  -22.5746    5.3013  -29.7250 N   0  0  0  0  0  0  0  0  0  0  0  0
  -22.1098    3.1570  -29.8981 N   0  0  0  0  0  0  0  0  0  0  0  0
  -19.4813   -4.6972  -30.5244 Cl  0  0  0  0  0  0  0  0  0  0  0  0
  1  3  2  0
  1  4  1  0
  2  5  2  3
  2  6  1  0
  2 43  1  0
  3  7  1  0
  3 44  1  0
  4  8  2  0
  5 44  1  0
  7  9  2  0
  8  9  1  0
  9 11  1  0
 10 11  2  0
 10 12  1  0
 11 14  1  0
 12 16  2  0
 13 15  1  0
 13 18  1  0
 14 17  2  0
 15 46  1  0
 16 17  1  0
 17 19  1  0
 18 20  1  0
 19 45  2  0
 19 47  1  0
 20 23  1  0
 20 46  1  0
 21 22  1  0
 21 25  2  3
 22 46  1  0
 23 27  1  0
 24 25  1  0
 24 47  1  0
 25 48  1  0
 26 28  1  0
 26 34  1  0
 27 49  1  0
 28 37  1  0
 29 31  2  0
 29 32  1  0
 30 48  2  3
 30 49  1  0
 30 50  1  0
 31 33  1  0
 31 49  1  0
 32 36  2  0
 33 35  2  0
 33 50  1  0
 34 50  1  0
 35 36  1  0
 37 38  2  0
 37 39  1  0
 38 40  1  0
 39 41  2  0
 40 42  2  0
 40 51  1  0
 41 42  1  0
M  END
$$$$

     RDKit          3D

 56 63  0  0  0  0  0  0  0  0999 V2000
  -32.5496    8.6602  -28.2428 C   0  0  0  0  0  0  0  0  0  0  0  0
  -31.2708    8.0676  -28.7659 C   0  0  0  0  0  0  0  0  0  0  0  0
  -31.0649    7.9491  -30.1610 C   0  0  0  0  0  0  0  0  0  0  0  0
  -30.3254    7.5835  -27.8476 C   0  0  0  0  0  0  0  0  0  0  0  0
  -29.8409    1.6975  -33.5879 C   0  0  0  0  0  0  0  0  0  0  0  0
  -29.9242    7.2741  -30.5957 C   0  0  0  0  0  0  0  0  0  0  0  0
  -29.3967    2.4653  -34.6836 C   0  0  0  0  0  0  0  0  0  0  0  0
  -29.1428    6.8730  -37.2561 C   0  0  0  0  0  0  0  0  0  0  0  0
  -29.1615    6.9573  -28.3266 C   0  0  0  0  0  0  0  0  0  0  0  0
  -28.9442    0.8251  -32.9747 C   0  0  0  0  0  0  0  0  0  0  0  0
  -28.8308    6.0763  -35.0542 C   0  0  0  0  0  0  0  0  0  0  0  0
  -28.9505    6.8311  -29.7011 C   0  0  0  0  0  0  0  0  0  0  0  0
  -28.0657    2.4021  -35.1368 C   0  0  0  0  0  0  0  0  0  0  0  0
  -27.9326    5.8717  -33.8695 C   0  0  0  0  0  0  0  0  0  0  0  0
  -27.6302    0.7115  -33.4243 C   0  0  0  0  0  0  0  0  0  0  0  0
  -27.1540    1.5457  -34.4992 C   0  0  0  0  0  0  0  0  0  0  0  0
  -26.7325   -0.2104  -32.6986 C   0  0  0  0  0  0  0  0  0  0  0  0
  -26.9548    6.0626  -36.6523 C   0  0  0  0  0  0  0  0  0  0  0  0
  -26.5628    5.4664  -34.1859 C   0  0  0  0  0  0  0  0  0  0  0  0
  -26.0853    4.4287  -31.8954 C   0  0  0  0  0  0  0  0  0  0  0  0
  -26.0977    5.3936  -35.6064 C   0  0  0  0  0  0  0  0  0  0  0  0
  -25.6289    4.9028  -33.2229 C   0  0  0  0  0  0  0  0  0  0  0  0
  -25.3692   -0.3386  -33.2750 C   0  0  0  0  0  0  0  0  0  0  0  0
  -24.9914    3.6882  -31.0560 C   0  0  0  0  0  0  0  0  0  0  0  0
  -24.8752    0.8181  -34.0314 C   0  0  0  0  0  0  0  0  0  0  0  0
  -24.1683   -0.4666  -31.1563 C   0  0  0  0  0  0  0  0  0  0  0  0
  -23.2112    5.0239  -31.8893 C   0  0  0  0  0  0  0  0  0  0  0  0
  -22.7811   -0.6411  -30.6618 C   0  0  0  0  0  0  0  0  0  0  0  0
  -22.7662    1.9554  -34.3814 C   0  0  0  0  0  0  0  0  0  0  0  0
  -22.7441    2.6914  -31.3676 C   0  0  0  0  0  0  0  0  0  0  0  0
  -22.1576   -1.9214  -30.8571 C   0  0  0  0  0  0  0  0  0  0  0  0
  -22.0761    0.3932  -30.0171 C   0  0  0  0  0  0  0  0  0  0  0  0
  -21.5550    2.3878  -33.6219 C   0  0  0  0  0  0  0  0  0  0  0  0
  -21.4893    2.7060  -32.2195 C   0  0  0  0  0  0  0  0  0  0  0  0
  -20.8616   -2.1137  -30.3793 C   0  0  0  0  0  0  0  0  0  0  0  0
  -20.7591    0.1622  -29.5746 C   0  0  0  0  0  0  0  0  0  0  0  0
  -20.3742    2.3955  -34.3889 C   0  0  0  0  0  0  0  0  0  0  0  0
  -20.1739   -1.0846  -29.7610 C   0  0  0  0  0  0  0  0  0  0  0  0
  -20.2013    2.9626  -31.6535 C   0  0  0  0  0  0  0  0  0  0  0  0
  -19.1220    2.6571  -33.8145 C   0  0  0  0  0  0  0  0  0  0  0  0
  -19.0277    2.9364  -32.4417 C   0  0  0  0  0  0  0  0  0  0  0  0
  -30.8937    6.1651  -32.7424 O   0  0  0  0  0  0  0  0  0  0  0  0
  -29.7282    8.3825  -32.9406 O   0  0  0  0  0  0  0  0  0  0  0  0
  -25.0327   -0.0869  -30.3772 O   0  0  0  0  0  0  0  0  0  0  0  0
  -24.4262   -0.8861  -32.3653 O   0  0  0  0  0  0  0  0  0  0  0  0
  -22.9157    2.2033  -35.5327 O   0  0  0  0  0  0  0  0  0  0  0  0
  -28.3502    6.2481  -32.6047 N   0  0  0  0  0  0  0  0  0  0  0  0
  -28.1846    6.7121  -36.1433 N   0  0  0  0  0  0  0  0  0  0  0  0
  -25.7249    1.5850  -34.7876 N   0  0  0  0  0  0  0  0  0  0  0  0
  -23.5949    1.0738  -33.8198 N   0  0  0  0  0  0  0  0  0  0  0  0
  -23.6480    3.7875  -31.5092 N   0  0  0  0  0  0  0  0  0  0  0  0
  -29.7665    7.0291  -32.3208 S   0  0  0  0  0  0  0  0  0  0  0  0
  -23.9213    5.2931  -33.4341 S   0  0  0  0  0  0  0  0  0  0  0  0
  -22.8173    1.9924  -29.7592 S   0  0  0  0  0  0  0  0  0  0  0  0
  -20.0541   -3.6365  -30.5509 Cl  0  0  0  0  0  0  0  0  0  0  0  0
  -18.4587   -1.2467  -29.3594 Cl  0  0  0  0  0  0  0  0  0  0  0  0
  1  2  1  0
  2  3  2  0
  2  4  1  0
  3  6  1  0
  4  9  2  0
  5  7  2  0
  5 10  1  0
  6 12  2  0
  6 52  1  0
  7 13  1  0
  8 48  1  0
  9 12  1  0
 10 15  2  0
 11 14  1  0
 11 48  1  0
 13 16  2  0
 14 19  1  0
 14 47  2  3
 15 16  1  0
 15 17  1  0
 16 49  1  0
 17 23  1  0
 18 21  1  0
 18 48  1  0
 19 21  2  0
 19 22  1  0
 20 22  1  0
 20 24  1  0
 22 53  1  0
 23 25  1  0
 23 45  1  0
 24 51  1  0
 25 49  1  0
 25 50  2  3
 26 28  1  0
 26 44  2  0
 26 45  1  0
 27 51  1  0
 27 53  1  0
 28 31  1  0
 28 32  2  0
 29 33  1  0
 29 46  2  0
 29 50  1  0
 30 34  1  0
 30 51  1  0
 30 54  1  0
 31 35  2  0
 32 36  1  0
 32 54  1  0
 33 34  2  0
 33 37  1  0
 34 39  1  0
 35 38  1  0
 35 55  1  0
 36 38  2  0
 37 40  2  0
 38 56  1  0
 39 41  2  0
 40 41  1  0
 42 52  1  0
 43 52  1  0
 47 52  1  0
M  END
$$$$

     RDKit          3D

 56 59  0  0  0  0  0  0  0  0999 V2000
  -32.1105    0.3879  -33.8928 C   0  0  0  0  0  0  0  0  0  0  0  0
  -31.9564    2.6999  -33.7615 C   0  0  0  0  0  0  0  0  0  0  0  0
  -30.7137    0.2448  -33.8985 C   0  0  0  0  0  0  0  0  0  0  0  0
  -30.5556    2.6338  -33.8041 C   0  0  0  0  0  0  0  0  0  0  0  0
  -29.7278   -1.7658  -35.1223 C   0  0  0  0  0  0  0  0  0  0  0  0
  -29.9215    1.4145  -33.8769 C   0  0  0  0  0  0  0  0  0  0  0  0
  -29.7074    3.8076  -33.7296 C   0  0  0  0  0  0  0  0  0  0  0  0
  -29.4588    4.3932  -32.4903 C   0  0  0  0  0  0  0  0  0  0  0  0
  -29.0794    4.2929  -34.8764 C   0  0  0  0  0  0  0  0  0  0  0  0
  -28.5224    5.4168  -32.4117 C   0  0  0  0  0  0  0  0  0  0  0  0
  -28.1897    5.3315  -34.8211 C   0  0  0  0  0  0  0  0  0  0  0  0
  -27.9188    0.3553  -33.0623 C   0  0  0  0  0  0  0  0  0  0  0  0
  -27.8897    5.8544  -33.5789 C   0  0  0  0  0  0  0  0  0  0  0  0
  -26.5270    0.6443  -32.5240 C   0  0  0  0  0  0  0  0  0  0  0  0
  -26.1104   -0.4804  -31.5754 C   0  0  0  0  0  0  0  0  0  0  0  0
  -25.6278    0.6913  -33.7470 C   0  0  0  0  0  0  0  0  0  0  0  0
  -25.4948    6.3149  -33.2109 C   0  0  0  0  0  0  0  0  0  0  0  0
  -25.3880   -0.7347  -34.2978 C   0  0  0  0  0  0  0  0  0  0  0  0
  -25.4416    8.3756  -34.1746 C   0  0  0  0  0  0  0  0  0  0  0  0
  -25.1499    5.0271  -32.5628 C   0  0  0  0  0  0  0  0  0  0  0  0
  -23.4551    3.3231  -32.1923 C   0  0  0  0  0  0  0  0  0  0  0  0
  -23.3309    7.0278  -33.9275 C   0  0  0  0  0  0  0  0  0  0  0  0
  -23.0287    3.7979  -30.8262 C   0  0  0  0  0  0  0  0  0  0  0  0
  -22.7681   -1.2752  -31.2459 C   0  0  0  0  0  0  0  0  0  0  0  0
  -22.2533    2.7232  -32.9808 C   0  0  0  0  0  0  0  0  0  0  0  0
  -22.4446    7.4919  -34.9663 C   0  0  0  0  0  0  0  0  0  0  0  0
  -22.0593    3.0988  -30.0459 C   0  0  0  0  0  0  0  0  0  0  0  0
  -21.8019   -1.7747  -30.2099 C   0  0  0  0  0  0  0  0  0  0  0  0
  -21.8889    3.4411  -28.6393 C   0  0  0  0  0  0  0  0  0  0  0  0
  -21.3450   -3.1817  -30.6721 C   0  0  0  0  0  0  0  0  0  0  0  0
  -20.9216    2.1197  -26.6884 C   0  0  0  0  0  0  0  0  0  0  0  0
  -20.7793    2.9760  -25.4469 C   0  0  0  0  0  0  0  0  0  0  0  0
  -20.4639   -1.0006  -30.1051 C   0  0  0  0  0  0  0  0  0  0  0  0
  -20.6516    2.8580  -28.0054 C   0  0  0  0  0  0  0  0  0  0  0  0
  -20.0118   -3.4538  -30.0286 C   0  0  0  0  0  0  0  0  0  0  0  0
  -20.1303    1.9167  -29.1026 C   0  0  0  0  0  0  0  0  0  0  0  0
  -19.7528    0.1298  -25.8339 C   0  0  0  0  0  0  0  0  0  0  0  0
  -19.4907   -2.0967  -28.1317 C   0  0  0  0  0  0  0  0  0  0  0  0
  -19.4400   -2.0761  -29.6703 C   0  0  0  0  0  0  0  0  0  0  0  0
  -18.8522   -0.8564  -26.1502 C   0  0  0  0  0  0  0  0  0  0  0  0
  -17.9038   -1.3181  -25.2136 C   0  0  0  0  0  0  0  0  0  0  0  0
  -30.2020   -0.9550  -33.9095 O   0  0  0  0  0  0  0  0  0  0  0  0
  -28.5296    1.3850  -33.8580 O   0  0  0  0  0  0  0  0  0  0  0  0
  -26.6124    1.8187  -31.8151 O   0  0  0  0  0  0  0  0  0  0  0  0
  -26.1297    1.5636  -34.6508 O   0  0  0  0  0  0  0  0  0  0  0  0
  -24.0074    4.4326  -32.9905 O   0  0  0  0  0  0  0  0  0  0  0  0
  -22.4167   -1.7679  -28.9105 O   0  0  0  0  0  0  0  0  0  0  0  0
  -20.3108    0.9238  -26.7109 O   0  0  0  0  0  0  0  0  0  0  0  0
  -20.1584   -0.3127  -31.2822 O   0  0  0  0  0  0  0  0  0  0  0  0
  -19.1727   -4.3838  -30.4731 O   0  0  0  0  0  0  0  0  0  0  0  0
  -18.9088    2.0508  -29.6425 O   0  0  0  0  0  0  0  0  0  0  0  0
  -18.6943   -1.0831  -27.5002 O   0  0  0  0  0  0  0  0  0  0  0  0
  -32.7646    1.6011  -33.8384 N   0  0  0  0  0  0  0  0  0  0  0  0
  -26.7773    6.7384  -33.5081 N   0  0  0  0  0  0  0  0  0  0  0  0
  -26.7141    7.9245  -34.1266 N   0  0  0  0  0  0  0  0  0  0  0  0
  -24.6617    7.3738  -33.6387 N   0  0  0  0  0  0  0  0  0  0  0  0
  1  3  1  0
  1 53  1  0
  2  4  1  0
  2 53  2  0
  3  6  2  0
  3 42  1  0
  4  6  1  0
  4  7  1  0
  5 42  1  0
  6 43  1  0
  7  8  2  0
  7  9  1  0
  8 10  1  0
  9 11  2  0
 10 13  2  0
 11 13  1  0
 12 14  1  0
 12 43  1  0
 13 54  1  0
 14 15  1  0
 14 16  1  0
 14 44  1  0
 16 18  1  0
 16 45  1  0
 17 20  1  0
 17 54  1  0
 17 56  1  0
 19 55  1  0
 19 56  1  0
 20 46  1  0
 21 23  1  0
 21 25  1  0
 21 46  1  0
 22 26  1  0
 22 56  1  0
 23 27  2  3
 24 28  1  0
 27 29  1  0
 28 30  1  0
 28 33  1  0
 28 47  1  0
 29 34  1  0
 30 35  1  0
 31 32  1  0
 31 34  1  0
 31 48  1  0
 33 39  1  0
 33 49  1  0
 34 36  1  0
 35 39  1  0
 35 50  1  0
 36 51  1  0
 37 40  1  0
 37 48  1  0
 38 39  1  0
 38 52  1  0
 40 41  1  0
 40 52  1  0
 54 55  1  0
M  END
$$$$

     RDKit          3D

 39 44  0  0  0  0  0  0  0  0999 V2000
  -29.5900    0.9785  -34.6299 C   0  0  0  0  0  0  0  0  0  0  0  0
  -29.5740    2.1109  -36.8572 C   0  0  0  0  0  0  0  0  0  0  0  0
  -28.6823   -0.1006  -34.1747 C   0  0  0  0  0  0  0  0  0  0  0  0
  -28.5080    2.7576  -37.6947 C   0  0  0  0  0  0  0  0  0  0  0  0
  -28.5475    3.0099  -34.8274 C   0  0  0  0  0  0  0  0  0  0  0  0
  -27.3031    0.3097  -33.6700 C   0  0  0  0  0  0  0  0  0  0  0  0
  -26.9137    1.6562  -33.4210 C   0  0  0  0  0  0  0  0  0  0  0  0
  -26.4236   -0.7105  -33.4334 C   0  0  0  0  0  0  0  0  0  0  0  0
  -25.6303    1.9187  -32.8977 C   0  0  0  0  0  0  0  0  0  0  0  0
  -25.2590    3.2551  -32.5870 C   0  0  0  0  0  0  0  0  0  0  0  0
  -25.1671   -0.4714  -32.9381 C   0  0  0  0  0  0  0  0  0  0  0  0
  -24.7480    0.8535  -32.6413 C   0  0  0  0  0  0  0  0  0  0  0  0
  -24.1167    3.4638  -31.7657 C   0  0  0  0  0  0  0  0  0  0  0  0
  -23.4895    1.1125  -31.9533 C   0  0  0  0  0  0  0  0  0  0  0  0
  -23.2042    2.4115  -31.5286 C   0  0  0  0  0  0  0  0  0  0  0  0
  -22.7627   -1.0070  -31.0581 C   0  0  0  0  0  0  0  0  0  0  0  0
  -22.2992    4.4424  -29.1621 C   0  0  0  0  0  0  0  0  0  0  0  0
  -22.2654    4.8871  -27.8429 C   0  0  0  0  0  0  0  0  0  0  0  0
  -22.4412    6.0609  -26.0181 C   0  0  0  0  0  0  0  0  0  0  0  0
  -22.0403    3.1260  -29.4550 C   0  0  0  0  0  0  0  0  0  0  0  0
  -22.0682    3.9864  -26.8009 C   0  0  0  0  0  0  0  0  0  0  0  0
  -21.8356   -3.2124  -30.8608 C   0  0  0  0  0  0  0  0  0  0  0  0
  -21.8087    2.2085  -28.4316 C   0  0  0  0  0  0  0  0  0  0  0  0
  -21.7955    2.6260  -27.1067 C   0  0  0  0  0  0  0  0  0  0  0  0
  -21.5928   -1.8634  -30.8431 C   0  0  0  0  0  0  0  0  0  0  0  0
  -20.7766   -4.0899  -30.6849 C   0  0  0  0  0  0  0  0  0  0  0  0
  -20.8615    3.3320  -31.5863 C   0  0  0  0  0  0  0  0  0  0  0  0
  -20.4788    2.5462  -32.7944 C   0  0  0  0  0  0  0  0  0  0  0  0
  -20.2925   -1.3830  -30.6209 C   0  0  0  0  0  0  0  0  0  0  0  0
  -19.5072   -3.6285  -30.4671 C   0  0  0  0  0  0  0  0  0  0  0  0
  -19.3036   -2.3104  -30.4237 C   0  0  0  0  0  0  0  0  0  0  0  0
  -28.9828    3.7216  -38.5484 O   0  0  0  0  0  0  0  0  0  0  0  0
  -23.8311   -1.3972  -30.5536 O   0  0  0  0  0  0  0  0  0  0  0  0
  -28.9538    1.8459  -35.5613 N   0  0  0  0  0  0  0  0  0  0  0  0
  -27.7886    2.7143  -33.5745 N   0  0  0  0  0  0  0  0  0  0  0  0
  -22.6158    0.0793  -31.8592 N   0  0  0  0  0  0  0  0  0  0  0  0
  -22.4873    6.1305  -27.3746 N   0  0  0  0  0  0  0  0  0  0  0  0
  -21.9705    2.6888  -30.8446 N   0  0  0  0  0  0  0  0  0  0  0  0
  -22.1461    4.7642  -25.6048 N   0  0  0  0  0  0  0  0  0  0  0  0
  1  3  1  0
  1 34  1  0
  2  4  1  0
  2 34  1  0
  3  6  1  0
  4 32  1  0
  5 34  1  0
  5 35  1  0
  6  7  2  0
  6  8  1  0
  7  9  1  0
  7 35  1  0
  8 11  2  0
  9 10  2  0
  9 12  1  0
 10 13  1  0
 11 12  1  0
 12 14  2  0
 13 15  2  0
 14 15  1  0
 14 36  1  0
 15 38  1  0
 16 25  1  0
 16 33  2  0
 16 36  1  0
 17 18  2  0
 17 20  1  0
 18 21  1  0
 18 37  1  0
 19 37  1  0
 19 39  1  0
 20 23  2  0
 20 38  1  0
 21 24  2  0
 21 39  1  0
 22 25  2  0
 22 26  1  0
 23 24  1  0
 25 29  1  0
 26 30  2  0
 27 28  1  0
 27 38  1  0
 29 31  2  0
 30 31  1  0
M  END
$$$$

     RDKit          3D

 42 46  0  0  0  0  0  0  0  0999 V2000
  -30.8928   -2.0266  -36.4770 C   0  0  0  0  0  0  0  0  0  0  0  0
  -30.7439   -0.7416  -35.9163 C   0  0  0  0  0  0  0  0  0  0  0  0
  -29.7554   -0.6368  -34.8132 C   0  0  0  0  0  0  0  0  0  0  0  0
  -29.2403   -1.7717  -34.2798 C   0  0  0  0  0  0  0  0  0  0  0  0
  -29.4442    0.5893  -34.3740 C   0  0  0  0  0  0  0  0  0  0  0  0
  -28.7891    1.1903  -33.6134 C   0  0  0  0  0  0  0  0  0  0  0  0
  -28.3324   -1.8073  -33.3025 C   0  0  0  0  0  0  0  0  0  0  0  0
  -28.1228    0.4921  -32.9533 C   0  0  0  0  0  0  0  0  0  0  0  0
  -27.7394   -0.7532  -32.7347 C   0  0  0  0  0  0  0  0  0  0  0  0
  -25.4499   -0.5419  -32.0549 C   0  0  0  0  0  0  0  0  0  0  0  0
  -24.3756   -0.9841  -31.3275 C   0  0  0  0  0  0  0  0  0  0  0  0
  -23.5897    3.1211  -38.8065 C   0  0  0  0  0  0  0  0  0  0  0  0
  -23.5014    3.0186  -33.7570 C   0  0  0  0  0  0  0  0  0  0  0  0
  -23.5505    4.4939  -38.6886 C   0  0  0  0  0  0  0  0  0  0  0  0
  -23.3598   -0.0856  -31.7038 C   0  0  0  0  0  0  0  0  0  0  0  0
  -23.2202    2.3436  -37.7102 C   0  0  0  0  0  0  0  0  0  0  0  0
  -23.2189    5.1143  -37.5208 C   0  0  0  0  0  0  0  0  0  0  0  0
  -23.0347    1.9316  -32.9671 C   0  0  0  0  0  0  0  0  0  0  0  0
  -22.8799    2.9355  -36.5147 C   0  0  0  0  0  0  0  0  0  0  0  0
  -22.9129    4.3521  -36.4151 C   0  0  0  0  0  0  0  0  0  0  0  0
  -22.7748    5.0541  -35.0877 C   0  0  0  0  0  0  0  0  0  0  0  0
  -22.6484    5.3115  -27.6411 C   0  0  0  0  0  0  0  0  0  0  0  0
  -22.3724    4.6178  -26.4222 C   0  0  0  0  0  0  0  0  0  0  0  0
  -22.1934    4.7812  -28.9270 C   0  0  0  0  0  0  0  0  0  0  0  0
  -21.6804    3.4218  -26.4731 C   0  0  0  0  0  0  0  0  0  0  0  0
  -21.2331    2.9127  -27.6560 C   0  0  0  0  0  0  0  0  0  0  0  0
  -21.4522    3.5625  -28.8839 C   0  0  0  0  0  0  0  0  0  0  0  0
  -21.1996    3.7480  -33.9474 C   0  0  0  0  0  0  0  0  0  0  0  0
  -20.8507    2.6995  -33.0876 C   0  0  0  0  0  0  0  0  0  0  0  0
  -19.7382    2.2147  -30.0462 C   0  0  0  0  0  0  0  0  0  0  0  0
  -19.3556    1.6086  -31.3678 C   0  0  0  0  0  0  0  0  0  0  0  0
  -31.4364   -2.3809  -37.5154 O   0  0  0  0  0  0  0  0  0  0  0  0
  -24.7116    3.0513  -34.0416 O   0  0  0  0  0  0  0  0  0  0  0  0
  -22.2829   -0.6734  -31.4404 O   0  0  0  0  0  0  0  0  0  0  0  0
  -19.1980    0.3552  -31.5722 O   0  0  0  0  0  0  0  0  0  0  0  0
  -26.7542   -0.9811  -31.7687 N   0  0  0  0  0  0  0  0  0  0  0  0
  -25.0961    0.5429  -32.8123 N   0  0  0  0  0  0  0  0  0  0  0  0
  -23.8534    0.9037  -32.5437 N   0  0  0  0  0  0  0  0  0  0  0  0
  -22.5630    4.0279  -34.0695 N   0  0  0  0  0  0  0  0  0  0  0  0
  -21.7635    1.8772  -32.5671 N   0  0  0  0  0  0  0  0  0  0  0  0
  -21.0778    2.9185  -30.1061 N   0  0  0  0  0  0  0  0  0  0  0  0
  -19.2078    2.7074  -32.6135 S   0  0  0  0  0  0  0  0  0  0  0  0
  1  2  1  0
  1 32  2  0
  2  3  1  0
  3  4  1  0
  3  5  2  0
  4  7  2  0
  5  6  1  0
  6  8  1  0
  7  9  1  0
  8  9  2  0
  9 36  1  0
 10 11  1  0
 10 36  2  3
 10 37  1  0
 11 15  1  0
 12 14  1  0
 12 16  1  0
 13 18  1  0
 13 33  2  0
 13 39  1  0
 14 17  2  0
 15 34  2  0
 15 38  1  0
 16 19  2  0
 17 20  1  0
 18 38  1  0
 18 40  2  0
 19 20  1  0
 20 21  1  0
 21 39  1  0
 22 23  2  0
 22 24  1  0
 23 25  1  0
 24 27  2  0
 25 26  2  0
 26 27  1  0
 27 41  1  0
 28 29  2  0
 28 39  1  0
 29 40  1  0
 29 42  1  0
 30 31  1  0
 30 41  1  0
 31 35  2  0
 31 42  1  0
 37 38  1  0
M  END
$$$$

     RDKit          3D

 44 48  0  0  0  0  0  0  0  0999 V2000
  -30.7079    4.1648  -33.1450 C   0  0  0  0  0  0  0  0  0  0  0  0
  -29.2172    4.1258  -32.9607 C   0  0  0  0  0  0  0  0  0  0  0  0
  -28.6968    2.0555  -34.5197 C   0  0  0  0  0  0  0  0  0  0  0  0
  -28.3991   -1.2310  -33.6870 C   0  0  0  0  0  0  0  0  0  0  0  0
  -28.3248    3.2022  -33.5575 C   0  0  0  0  0  0  0  0  0  0  0  0
  -27.7371    0.9238  -34.6889 C   0  0  0  0  0  0  0  0  0  0  0  0
  -27.3552   -0.0359  -33.5649 C   0  0  0  0  0  0  0  0  0  0  0  0
  -26.9799    3.4037  -33.0809 C   0  0  0  0  0  0  0  0  0  0  0  0
  -26.7193    4.0661  -31.9271 C   0  0  0  0  0  0  0  0  0  0  0  0
  -25.8995   -0.5607  -33.7128 C   0  0  0  0  0  0  0  0  0  0  0  0
  -25.4664    4.1282  -31.2464 C   0  0  0  0  0  0  0  0  0  0  0  0
  -24.7387    0.4684  -33.9359 C   0  0  0  0  0  0  0  0  0  0  0  0
  -24.5743    3.9009  -33.4231 C   0  0  0  0  0  0  0  0  0  0  0  0
  -24.3261    3.9806  -32.0693 C   0  0  0  0  0  0  0  0  0  0  0  0
  -24.4491    6.2105  -36.8466 C   0  0  0  0  0  0  0  0  0  0  0  0
  -24.2334    7.4551  -35.8953 C   0  0  0  0  0  0  0  0  0  0  0  0
  -23.5223    0.6941  -32.9982 C   0  0  0  0  0  0  0  0  0  0  0  0
  -23.6958    3.5491  -34.5338 C   0  0  0  0  0  0  0  0  0  0  0  0
  -22.4986    1.6652  -33.2874 C   0  0  0  0  0  0  0  0  0  0  0  0
  -22.6881    2.4857  -34.4844 C   0  0  0  0  0  0  0  0  0  0  0  0
  -22.3638   -0.0433  -31.0620 C   0  0  0  0  0  0  0  0  0  0  0  0
  -21.2219    0.8051  -31.3560 C   0  0  0  0  0  0  0  0  0  0  0  0
  -21.3634    1.7215  -32.4176 C   0  0  0  0  0  0  0  0  0  0  0  0
  -20.8059    0.8080  -27.6087 C   0  0  0  0  0  0  0  0  0  0  0  0
  -20.8388    1.0149  -26.2217 C   0  0  0  0  0  0  0  0  0  0  0  0
  -20.3476    2.7229  -32.5848 C   0  0  0  0  0  0  0  0  0  0  0  0
  -20.0020   -0.1982  -28.1597 C   0  0  0  0  0  0  0  0  0  0  0  0
  -20.0228    0.1877  -25.3887 C   0  0  0  0  0  0  0  0  0  0  0  0
  -20.0471    0.7486  -30.5832 C   0  0  0  0  0  0  0  0  0  0  0  0
  -19.7687   -0.3405  -29.6241 C   0  0  0  0  0  0  0  0  0  0  0  0
  -19.2744   -1.0828  -27.3487 C   0  0  0  0  0  0  0  0  0  0  0  0
  -19.2452   -0.8517  -25.9690 C   0  0  0  0  0  0  0  0  0  0  0  0
  -19.2075    2.6962  -31.7653 C   0  0  0  0  0  0  0  0  0  0  0  0
  -19.0593    1.7109  -30.8180 C   0  0  0  0  0  0  0  0  0  0  0  0
  -18.3982   -1.6604  -25.0586 C   0  0  0  0  0  0  0  0  0  0  0  0
  -29.6322    2.1805  -35.3149 O   0  0  0  0  0  0  0  0  0  0  0  0
  -26.1597    4.8296  -36.0736 O   0  0  0  0  0  0  0  0  0  0  0  0
  -22.4405   -0.7684  -30.0018 O   0  0  0  0  0  0  0  0  0  0  0  0
  -22.0176    2.1837  -35.5214 O   0  0  0  0  0  0  0  0  0  0  0  0
  -20.5182    3.7934  -33.3870 O   0  0  0  0  0  0  0  0  0  0  0  0
  -24.5400    5.2688  -35.7504 N   0  0  0  0  0  0  0  0  0  0  0  0
  -23.8903    4.1637  -35.7244 N   0  0  0  0  0  0  0  0  0  0  0  0
  -23.4420   -0.0625  -31.8774 N   0  0  0  0  0  0  0  0  0  0  0  0
  -28.2827    4.8577  -31.6004 S   0  0  0  0  0  0  0  0  0  0  0  0
  1  2  1  0
  2  5  2  0
  2 44  1  0
  3  5  1  0
  3  6  1  0
  3 36  2  0
  4  7  1  0
  5  8  1  0
  6  7  1  0
  7 10  1  0
  8  9  2  0
  9 11  1  0
  9 44  1  0
 10 12  1  0
 11 14  1  0
 12 17  1  0
 13 14  2  3
 13 18  1  0
 15 16  1  0
 15 41  1  0
 17 19  1  0
 17 43  2  0
 18 20  1  0
 18 42  1  0
 19 20  1  0
 19 23  1  0
 20 39  2  0
 21 22  1  0
 21 38  2  0
 21 43  1  0
 22 23  2  0
 22 29  1  0
 23 26  1  0
 24 25  2  0
 24 27  1  0
 25 28  1  0
 26 33  2  0
 26 40  1  0
 27 30  1  0
 27 31  2  0
 28 32  2  0
 29 30  1  0
 29 34  2  0
 31 32  1  0
 32 35  1  0
 33 34  1  0
 37 41  1  0
 41 42  1  0
M  END
$$$$

     RDKit          3D

 42 49  0  0  0  0  0  0  0  0999 V2000
  -30.2873   -0.3833  -35.1682 C   0  0  0  0  0  0  0  0  0  0  0  0
  -30.4560    1.3582  -36.9303 C   0  0  0  0  0  0  0  0  0  0  0  0
  -30.1056    2.6274  -37.3967 C   0  0  0  0  0  0  0  0  0  0  0  0
  -29.7275   -0.8346  -34.0177 C   0  0  0  0  0  0  0  0  0  0  0  0
  -29.9202    0.8483  -35.7087 C   0  0  0  0  0  0  0  0  0  0  0  0
  -29.3941    5.3708  -32.1027 C   0  0  0  0  0  0  0  0  0  0  0  0
  -28.9628    1.6247  -35.0287 C   0  0  0  0  0  0  0  0  0  0  0  0
  -29.1810    3.3673  -36.6767 C   0  0  0  0  0  0  0  0  0  0  0  0
  -28.7720   -0.1242  -33.3387 C   0  0  0  0  0  0  0  0  0  0  0  0
  -28.6022    2.8820  -35.5303 C   0  0  0  0  0  0  0  0  0  0  0  0
  -28.4120    1.0873  -33.8282 C   0  0  0  0  0  0  0  0  0  0  0  0
  -28.3598    6.1023  -31.5591 C   0  0  0  0  0  0  0  0  0  0  0  0
  -27.8906    4.4310  -33.6716 C   0  0  0  0  0  0  0  0  0  0  0  0
  -27.5804    3.6075  -34.8036 C   0  0  0  0  0  0  0  0  0  0  0  0
  -27.0806    5.9855  -32.0187 C   0  0  0  0  0  0  0  0  0  0  0  0
  -26.8289    5.1326  -33.0849 C   0  0  0  0  0  0  0  0  0  0  0  0
  -26.2721    3.3823  -35.1960 C   0  0  0  0  0  0  0  0  0  0  0  0
  -25.4780    4.9631  -33.6105 C   0  0  0  0  0  0  0  0  0  0  0  0
  -25.2422    4.0868  -34.6594 C   0  0  0  0  0  0  0  0  0  0  0  0
  -23.9096    5.4246  -31.7404 C   0  0  0  0  0  0  0  0  0  0  0  0
  -23.9413    6.7784  -33.7159 C   0  0  0  0  0  0  0  0  0  0  0  0
  -22.5452    6.1555  -31.8116 C   0  0  0  0  0  0  0  0  0  0  0  0
  -22.7030    7.1971  -32.9389 C   0  0  0  0  0  0  0  0  0  0  0  0
  -21.5192    0.8477  -31.3260 C   0  0  0  0  0  0  0  0  0  0  0  0
  -21.3511   -0.4300  -30.4966 C   0  0  0  0  0  0  0  0  0  0  0  0
  -21.3677    4.4646  -33.4085 C   0  0  0  0  0  0  0  0  0  0  0  0
  -21.3540    5.2203  -32.0372 C   0  0  0  0  0  0  0  0  0  0  0  0
  -21.0650   -3.4455  -30.9094 C   0  0  0  0  0  0  0  0  0  0  0  0
  -21.1353    4.2010  -30.9563 C   0  0  0  0  0  0  0  0  0  0  0  0
  -20.7500    3.1320  -33.0868 C   0  0  0  0  0  0  0  0  0  0  0  0
  -20.3464   -4.7514  -30.6839 C   0  0  0  0  0  0  0  0  0  0  0  0
  -20.3769    1.8434  -30.9864 C   0  0  0  0  0  0  0  0  0  0  0  0
  -20.0018   -2.4501  -30.7982 C   0  0  0  0  0  0  0  0  0  0  0  0
  -19.0466    1.1993  -31.4082 C   0  0  0  0  0  0  0  0  0  0  0  0
  -18.8780   -0.2106  -30.7841 C   0  0  0  0  0  0  0  0  0  0  0  0
  -24.4188    7.3901  -34.6432 O   0  0  0  0  0  0  0  0  0  0  0  0
  -29.1500    4.5358  -33.1439 N   0  0  0  0  0  0  0  0  0  0  0  0
  -24.4431    5.6843  -33.0897 N   0  0  0  0  0  0  0  0  0  0  0  0
  -20.6483    3.0607  -31.6647 N   0  0  0  0  0  0  0  0  0  0  0  0
  -20.0909   -1.0558  -30.9217 N   0  0  0  0  0  0  0  0  0  0  0  0
  -19.0202   -4.4360  -30.4840 N   0  0  0  0  0  0  0  0  0  0  0  0
  -18.8697   -3.1363  -30.5826 N   0  0  0  0  0  0  0  0  0  0  0  0
  1  4  2  0
  1  5  1  0
  2  3  1  0
  2  5  2  0
  3  8  2  0
  4  9  1  0
  5  7  1  0
  6 12  2  0
  6 37  1  0
  7 10  2  0
  7 11  1  0
  8 10  1  0
  9 11  2  0
 10 14  1  0
 12 15  1  0
 13 14  1  0
 13 16  1  0
 13 37  2  0
 14 17  2  0
 15 16  2  0
 16 18  1  0
 17 19  1  0
 18 19  2  0
 18 38  1  0
 20 22  1  0
 20 38  1  0
 21 23  1  0
 21 36  2  0
 21 38  1  0
 22 23  1  0
 22 27  1  0
 24 25  1  0
 24 32  1  0
 25 40  1  0
 26 27  1  0
 26 30  1  0
 27 29  1  0
 28 31  1  0
 28 33  1  0
 29 39  1  0
 30 39  1  0
 31 41  1  0
 32 34  1  0
 32 39  1  0
 33 40  1  0
 33 42  2  0
 34 35  1  0
 35 40  1  0
 41 42  1  0
M  END
$$$$

     RDKit          3D

 43 48  0  0  0  0  0  0  0  0999 V2000
  -30.1861    2.2764  -33.4734 C   0  0  0  0  0  0  0  0  0  0  0  0
  -29.7625    0.9919  -33.7655 C   0  0  0  0  0  0  0  0  0  0  0  0
  -29.3099    3.2456  -33.0289 C   0  0  0  0  0  0  0  0  0  0  0  0
  -28.4104    0.6974  -33.6273 C   0  0  0  0  0  0  0  0  0  0  0  0
  -27.9631    2.9391  -32.9244 C   0  0  0  0  0  0  0  0  0  0  0  0
  -27.4856    1.6739  -33.2275 C   0  0  0  0  0  0  0  0  0  0  0  0
  -27.5192    3.4642  -37.8185 C   0  0  0  0  0  0  0  0  0  0  0  0
  -26.1255    1.3835  -33.0294 C   0  0  0  0  0  0  0  0  0  0  0  0
  -25.9941    3.6260  -39.7844 C   0  0  0  0  0  0  0  0  0  0  0  0
  -25.7936    0.7612  -31.7884 C   0  0  0  0  0  0  0  0  0  0  0  0
  -25.1060    1.7174  -33.9729 C   0  0  0  0  0  0  0  0  0  0  0  0
  -25.1345    3.1346  -37.4120 C   0  0  0  0  0  0  0  0  0  0  0  0
  -24.7914    3.6925  -38.7953 C   0  0  0  0  0  0  0  0  0  0  0  0
  -24.5111    0.4713  -31.4077 C   0  0  0  0  0  0  0  0  0  0  0  0
  -24.3529    2.5752  -36.3123 C   0  0  0  0  0  0  0  0  0  0  0  0
  -24.4303    7.3902  -34.9875 C   0  0  0  0  0  0  0  0  0  0  0  0
  -23.7990    1.4743  -33.5765 C   0  0  0  0  0  0  0  0  0  0  0  0
  -23.5087    0.8611  -32.3419 C   0  0  0  0  0  0  0  0  0  0  0  0
  -23.0219    5.5303  -33.3563 C   0  0  0  0  0  0  0  0  0  0  0  0
  -22.3629    6.2574  -34.4715 C   0  0  0  0  0  0  0  0  0  0  0  0
  -21.9802    3.9479  -31.9185 C   0  0  0  0  0  0  0  0  0  0  0  0
  -21.3941    1.4287  -30.0852 C   0  0  0  0  0  0  0  0  0  0  0  0
  -21.4504    1.6059  -31.5089 C   0  0  0  0  0  0  0  0  0  0  0  0
  -21.1782    1.1682  -27.6316 C   0  0  0  0  0  0  0  0  0  0  0  0
  -21.0837    1.3102  -26.1785 C   0  0  0  0  0  0  0  0  0  0  0  0
  -20.7733    0.2448  -29.7186 C   0  0  0  0  0  0  0  0  0  0  0  0
  -20.9502    2.8279  -32.1298 C   0  0  0  0  0  0  0  0  0  0  0  0
  -20.5905    0.1498  -28.3429 C   0  0  0  0  0  0  0  0  0  0  0  0
  -20.2048    0.3396  -25.4863 C   0  0  0  0  0  0  0  0  0  0  0  0
  -19.8536   -0.8229  -27.6467 C   0  0  0  0  0  0  0  0  0  0  0  0
  -19.5859   -0.6728  -26.2800 C   0  0  0  0  0  0  0  0  0  0  0  0
  -18.5827   -1.5139  -25.5978 C   0  0  0  0  0  0  0  0  0  0  0  0
  -23.1556    2.3267  -36.2204 O   0  0  0  0  0  0  0  0  0  0  0  0
  -22.9964    7.3762  -34.9968 O   0  0  0  0  0  0  0  0  0  0  0  0
  -22.8347    3.7356  -31.0926 O   0  0  0  0  0  0  0  0  0  0  0  0
  -22.2224    0.6996  -32.0859 O   0  0  0  0  0  0  0  0  0  0  0  0
  -27.2202    3.9094  -39.0986 N   0  0  0  0  0  0  0  0  0  0  0  0
  -26.4640    2.6113  -35.7868 N   0  0  0  0  0  0  0  0  0  0  0  0
  -26.4012    3.0530  -37.0316 N   0  0  0  0  0  0  0  0  0  0  0  0
  -25.3064    2.3010  -35.2863 N   0  0  0  0  0  0  0  0  0  0  0  0
  -21.8720    4.9891  -32.6678 N   0  0  0  0  0  0  0  0  0  0  0  0
  -21.9858    2.3164  -28.7743 S   0  0  0  0  0  0  0  0  0  0  0  0
  -27.8446   -0.9399  -34.0500 Cl  0  0  0  0  0  0  0  0  0  0  0  0
  1  2  2  0
  1  3  1  0
  2  4  1  0
  3  5  2  0
  4  6  2  0
  4 43  1  0
  5  6  1  0
  6  8  1  0
  7 37  1  0
  7 39  1  0
  8 10  2  0
  8 11  1  0
  9 13  1  0
  9 37  1  0
 10 14  1  0
 11 17  1  0
 11 40  1  0
 12 13  1  0
 12 15  1  0
 12 39  1  0
 14 18  1  0
 15 33  2  0
 15 40  1  0
 16 34  1  0
 17 18  2  0
 18 36  1  0
 19 20  1  0
 19 41  1  0
 20 34  1  0
 21 27  1  0
 21 35  2  0
 21 41  1  0
 22 23  1  0
 22 26  1  0
 22 42  1  0
 23 27  1  0
 23 36  1  0
 24 25  2  0
 24 28  1  0
 24 42  1  0
 25 29  1  0
 26 28  1  0
 28 30  2  0
 29 31  2  0
 30 31  1  0
 31 32  1  0
 38 39  1  0
 38 40  1  0
M  END
$$$$

     RDKit          3D

 40 46  0  0  0  0  0  0  0  0999 V2000
  -31.8441    0.4751  -36.4192 C   0  0  0  0  0  0  0  0  0  0  0  0
  -31.8600    2.8647  -35.9446 C   0  0  0  0  0  0  0  0  0  0  0  0
  -31.2454   -3.1661  -36.9258 C   0  0  0  0  0  0  0  0  0  0  0  0
  -31.2294   -0.7749  -36.2849 C   0  0  0  0  0  0  0  0  0  0  0  0
  -31.2628    1.5871  -35.7706 C   0  0  0  0  0  0  0  0  0  0  0  0
  -31.3076    3.9785  -35.3703 C   0  0  0  0  0  0  0  0  0  0  0  0
  -30.0913   -0.9145  -35.4774 C   0  0  0  0  0  0  0  0  0  0  0  0
  -30.1607    1.4464  -34.9554 C   0  0  0  0  0  0  0  0  0  0  0  0
  -30.1633    3.8650  -34.5743 C   0  0  0  0  0  0  0  0  0  0  0  0
  -29.5384    0.1844  -34.7761 C   0  0  0  0  0  0  0  0  0  0  0  0
  -28.3335   -0.6085  -32.6941 C   0  0  0  0  0  0  0  0  0  0  0  0
  -28.2914   -0.0540  -33.9760 C   0  0  0  0  0  0  0  0  0  0  0  0
  -27.1494   -0.8015  -31.9545 C   0  0  0  0  0  0  0  0  0  0  0  0
  -27.0376    0.3055  -34.4671 C   0  0  0  0  0  0  0  0  0  0  0  0
  -25.8848   -0.3715  -32.4332 C   0  0  0  0  0  0  0  0  0  0  0  0
  -25.8955    0.1362  -33.7404 C   0  0  0  0  0  0  0  0  0  0  0  0
  -24.6953   -0.4575  -31.5397 C   0  0  0  0  0  0  0  0  0  0  0  0
  -23.3616   -0.0296  -31.9836 C   0  0  0  0  0  0  0  0  0  0  0  0
  -22.9515    3.7707  -30.6301 C   0  0  0  0  0  0  0  0  0  0  0  0
  -22.8026    5.1452  -28.5644 C   0  0  0  0  0  0  0  0  0  0  0  0
  -22.5248    3.9615  -29.2221 C   0  0  0  0  0  0  0  0  0  0  0  0
  -22.3101    1.4402  -30.4069 C   0  0  0  0  0  0  0  0  0  0  0  0
  -22.4273    5.3657  -27.2751 C   0  0  0  0  0  0  0  0  0  0  0  0
  -21.8827    2.9338  -28.5527 C   0  0  0  0  0  0  0  0  0  0  0  0
  -21.7355    4.3639  -26.6031 C   0  0  0  0  0  0  0  0  0  0  0  0
  -21.5141   -2.1078  -31.0834 C   0  0  0  0  0  0  0  0  0  0  0  0
  -21.5338   -0.8257  -30.4961 C   0  0  0  0  0  0  0  0  0  0  0  0
  -21.6128    1.6790  -29.1996 C   0  0  0  0  0  0  0  0  0  0  0  0
  -21.4523    3.1702  -27.2298 C   0  0  0  0  0  0  0  0  0  0  0  0
  -20.7425    0.6820  -28.7257 C   0  0  0  0  0  0  0  0  0  0  0  0
  -20.6686   -3.1112  -30.6191 C   0  0  0  0  0  0  0  0  0  0  0  0
  -20.6929   -0.5916  -29.3648 C   0  0  0  0  0  0  0  0  0  0  0  0
  -19.8159   -2.8804  -29.5428 C   0  0  0  0  0  0  0  0  0  0  0  0
  -19.8111   -1.6115  -28.9225 C   0  0  0  0  0  0  0  0  0  0  0  0
  -24.8134   -0.8576  -30.4275 O   0  0  0  0  0  0  0  0  0  0  0  0
  -31.8061   -1.8376  -36.9705 N   0  0  0  0  0  0  0  0  0  0  0  0
  -31.9606    5.1022  -35.6644 N   0  0  0  0  0  0  0  0  0  0  0  0
  -29.6420    2.5474  -34.3282 N   0  0  0  0  0  0  0  0  0  0  0  0
  -23.0564    2.4460  -31.0385 N   0  0  0  0  0  0  0  0  0  0  0  0
  -22.3797    0.1924  -30.9347 N   0  0  0  0  0  0  0  0  0  0  0  0
  1  4  1  0
  1  5  2  0
  2  5  1  0
  2  6  2  0
  3 36  1  0
  4  7  1  0
  4 36  2  3
  5  8  1  0
  6  9  1  0
  6 37  1  0
  7 10  2  0
  8 10  1  0
  8 38  2  0
  9 38  1  0
 10 12  1  0
 11 12  2  0
 11 13  1  0
 12 14  1  0
 13 15  2  0
 14 16  2  0
 15 16  1  0
 15 17  1  0
 17 18  1  0
 17 35  2  0
 18 40  1  0
 19 21  1  0
 19 39  1  0
 20 21  1  0
 20 23  2  0
 21 24  2  0
 22 28  1  0
 22 39  2  0
 22 40  1  0
 23 25  1  0
 24 28  1  0
 24 29  1  0
 25 29  2  0
 26 27  1  0
 26 31  2  0
 27 32  2  0
 27 40  1  0
 28 30  2  0
 30 32  1  0
 31 33  1  0
 32 34  1  0
 33 34  2  0
M  END
$$$$

     RDKit          3D

 51 57  0  0  0  0  0  0  0  0999 V2000
  -32.5526    3.6459  -33.5189 C   0  0  0  0  0  0  0  0  0  0  0  0
  -32.1987    1.3004  -33.9481 C   0  0  0  0  0  0  0  0  0  0  0  0
  -32.1257    4.8863  -33.1011 C   0  0  0  0  0  0  0  0  0  0  0  0
  -31.5702   -0.8066  -35.1696 C   0  0  0  0  0  0  0  0  0  0  0  0
  -31.6627    2.5818  -33.5980 C   0  0  0  0  0  0  0  0  0  0  0  0
  -31.3082    0.2628  -34.1057 C   0  0  0  0  0  0  0  0  0  0  0  0
  -30.7612    5.0655  -32.7463 C   0  0  0  0  0  0  0  0  0  0  0  0
  -30.2983    2.7799  -33.3215 C   0  0  0  0  0  0  0  0  0  0  0  0
  -30.3659    6.4412  -32.1518 C   0  0  0  0  0  0  0  0  0  0  0  0
  -29.9516    0.4597  -33.8803 C   0  0  0  0  0  0  0  0  0  0  0  0
  -29.8600    4.0372  -32.8606 C   0  0  0  0  0  0  0  0  0  0  0  0
  -29.4377    1.6938  -33.4789 C   0  0  0  0  0  0  0  0  0  0  0  0
  -27.2203    0.9894  -32.9355 C   0  0  0  0  0  0  0  0  0  0  0  0
  -25.9638    1.4979  -32.3850 C   0  0  0  0  0  0  0  0  0  0  0  0
  -25.7920    2.8356  -32.1223 C   0  0  0  0  0  0  0  0  0  0  0  0
  -24.9073   -0.6563  -33.1150 C   0  0  0  0  0  0  0  0  0  0  0  0
  -24.9149    0.6063  -32.2420 C   0  0  0  0  0  0  0  0  0  0  0  0
  -24.6116    3.2976  -31.6384 C   0  0  0  0  0  0  0  0  0  0  0  0
  -24.2480    2.9240  -36.9413 C   0  0  0  0  0  0  0  0  0  0  0  0
  -24.1924    2.7744  -35.4959 C   0  0  0  0  0  0  0  0  0  0  0  0
  -23.7666    1.0531  -31.5803 C   0  0  0  0  0  0  0  0  0  0  0  0
  -23.5801    2.4380  -31.3761 C   0  0  0  0  0  0  0  0  0  0  0  0
  -23.2710    2.1455  -37.6668 C   0  0  0  0  0  0  0  0  0  0  0  0
  -22.8123   -1.1009  -30.8454 C   0  0  0  0  0  0  0  0  0  0  0  0
  -22.6191    2.9737  -33.6920 C   0  0  0  0  0  0  0  0  0  0  0  0
  -22.5583    4.4201  -28.9759 C   0  0  0  0  0  0  0  0  0  0  0  0
  -22.4618    4.6060  -27.6109 C   0  0  0  0  0  0  0  0  0  0  0  0
  -22.1882    3.1902  -29.5369 C   0  0  0  0  0  0  0  0  0  0  0  0
  -22.0279    3.5809  -26.8054 C   0  0  0  0  0  0  0  0  0  0  0  0
  -21.7888    2.1802  -28.6589 C   0  0  0  0  0  0  0  0  0  0  0  0
  -21.7945    2.3551  -35.8366 C   0  0  0  0  0  0  0  0  0  0  0  0
  -21.4706   -3.1848  -30.7754 C   0  0  0  0  0  0  0  0  0  0  0  0
  -21.5088   -1.8218  -30.8507 C   0  0  0  0  0  0  0  0  0  0  0  0
  -21.6625    2.3722  -27.3162 C   0  0  0  0  0  0  0  0  0  0  0  0
  -21.0598    1.2532  -26.5116 C   0  0  0  0  0  0  0  0  0  0  0  0
  -21.1911    2.9369  -31.8273 C   0  0  0  0  0  0  0  0  0  0  0  0
  -20.3089   -3.8892  -30.5934 C   0  0  0  0  0  0  0  0  0  0  0  0
  -20.2996   -1.1177  -30.7961 C   0  0  0  0  0  0  0  0  0  0  0  0
  -20.3502    2.4032  -34.0335 C   0  0  0  0  0  0  0  0  0  0  0  0
  -19.9220    3.3055  -31.3421 C   0  0  0  0  0  0  0  0  0  0  0  0
  -19.1397   -3.1808  -30.4846 C   0  0  0  0  0  0  0  0  0  0  0  0
  -19.1034   -1.8049  -30.6023 C   0  0  0  0  0  0  0  0  0  0  0  0
  -27.4993   -0.1685  -33.0947 O   0  0  0  0  0  0  0  0  0  0  0  0
  -23.7815   -1.6902  -30.4111 O   0  0  0  0  0  0  0  0  0  0  0  0
  -28.1428    1.8995  -33.2039 N   0  0  0  0  0  0  0  0  0  0  0  0
  -22.7167    0.2204  -31.1737 N   0  0  0  0  0  0  0  0  0  0  0  0
  -22.8382    2.6900  -35.0256 N   0  0  0  0  0  0  0  0  0  0  0  0
  -22.2530    2.9164  -30.9376 N   0  0  0  0  0  0  0  0  0  0  0  0
  -21.9965    2.1339  -37.1364 N   0  0  0  0  0  0  0  0  0  0  0  0
  -21.3840    2.6873  -33.2006 N   0  0  0  0  0  0  0  0  0  0  0  0
  -20.5751    2.2075  -35.3461 N   0  0  0  0  0  0  0  0  0  0  0  0
  1  3  2  0
  1  5  1  0
  2  5  2  0
  2  6  1  0
  3  7  1  0
  4  6  1  0
  5  8  1  0
  6 10  1  0
  7  9  1  0
  7 11  2  0
  8 11  1  0
  8 12  1  0
 10 12  2  0
 12 45  1  0
 13 14  1  0
 13 43  2  0
 13 45  1  0
 14 15  1  0
 14 17  1  0
 15 18  2  0
 16 17  1  0
 17 21  1  0
 18 22  1  0
 19 20  1  0
 19 23  1  0
 20 47  1  0
 21 22  2  0
 21 46  1  0
 22 48  1  0
 23 49  1  0
 24 33  1  0
 24 44  2  0
 24 46  1  0
 25 47  1  0
 25 50  1  0
 26 27  2  0
 26 28  1  0
 27 29  1  0
 28 30  2  0
 28 48  1  0
 29 34  2  0
 30 34  1  0
 31 47  1  0
 31 49  1  0
 31 51  2  0
 32 33  2  0
 32 37  1  0
 33 38  1  0
 34 35  1  0
 36 40  1  0
 36 48  1  0
 36 50  1  0
 37 41  2  0
 38 42  2  0
 39 50  1  0
 39 51  1  0
 41 42  1  0
M  END
$$$$

     RDKit          3D

 45 51  0  0  0  0  0  0  0  0999 V2000
  -32.0838   -0.7056  -36.1562 C   0  0  0  0  0  0  0  0  0  0  0  0
  -31.8828   -1.9578  -36.6455 C   0  0  0  0  0  0  0  0  0  0  0  0
  -31.2475   -0.1241  -35.2551 C   0  0  0  0  0  0  0  0  0  0  0  0
  -30.7630   -2.6756  -36.1226 C   0  0  0  0  0  0  0  0  0  0  0  0
  -30.1536   -0.8226  -34.7391 C   0  0  0  0  0  0  0  0  0  0  0  0
  -29.9517   -2.1439  -35.1700 C   0  0  0  0  0  0  0  0  0  0  0  0
  -29.4145    1.0950  -33.3813 C   0  0  0  0  0  0  0  0  0  0  0  0
  -29.0485   -0.1239  -34.0938 C   0  0  0  0  0  0  0  0  0  0  0  0
  -28.7262    2.7201  -36.4944 C   0  0  0  0  0  0  0  0  0  0  0  0
  -28.3454    2.1407  -33.3946 C   0  0  0  0  0  0  0  0  0  0  0  0
  -27.4632    2.5480  -35.7618 C   0  0  0  0  0  0  0  0  0  0  0  0
  -25.9901    2.0494  -34.1627 C   0  0  0  0  0  0  0  0  0  0  0  0
  -26.1915    2.6805  -36.3570 C   0  0  0  0  0  0  0  0  0  0  0  0
  -25.3562    1.7034  -32.9415 C   0  0  0  0  0  0  0  0  0  0  0  0
  -25.2701    2.3332  -35.3347 C   0  0  0  0  0  0  0  0  0  0  0  0
  -23.9526    1.6065  -33.0290 C   0  0  0  0  0  0  0  0  0  0  0  0
  -23.8732    2.2295  -35.3439 C   0  0  0  0  0  0  0  0  0  0  0  0
  -23.2255    1.2008  -31.8489 C   0  0  0  0  0  0  0  0  0  0  0  0
  -23.2338    1.8825  -34.1689 C   0  0  0  0  0  0  0  0  0  0  0  0
  -23.4332    3.5282  -30.9670 C   0  0  0  0  0  0  0  0  0  0  0  0
  -23.1675    1.6768  -37.6526 C   0  0  0  0  0  0  0  0  0  0  0  0
  -23.0303    2.1335  -30.8343 C   0  0  0  0  0  0  0  0  0  0  0  0
  -23.0543    2.4807  -36.5086 C   0  0  0  0  0  0  0  0  0  0  0  0
  -22.7602   -0.1389  -31.7119 C   0  0  0  0  0  0  0  0  0  0  0  0
  -22.3882    1.9448  -38.7598 C   0  0  0  0  0  0  0  0  0  0  0  0
  -22.3898    1.7476  -29.6517 C   0  0  0  0  0  0  0  0  0  0  0  0
  -22.2593    2.6996  -28.6240 C   0  0  0  0  0  0  0  0  0  0  0  0
  -22.0480   -0.5295  -30.5599 C   0  0  0  0  0  0  0  0  0  0  0  0
  -22.1201    3.5024  -36.4852 C   0  0  0  0  0  0  0  0  0  0  0  0
  -21.8369    0.4524  -29.5225 C   0  0  0  0  0  0  0  0  0  0  0  0
  -21.9424    4.3423  -26.0598 C   0  0  0  0  0  0  0  0  0  0  0  0
  -21.6196    2.3301  -27.4787 C   0  0  0  0  0  0  0  0  0  0  0  0
  -21.4978    6.5312  -24.7365 C   0  0  0  0  0  0  0  0  0  0  0  0
  -21.4145    2.9340  -38.7025 C   0  0  0  0  0  0  0  0  0  0  0  0
  -21.3105    3.7300  -37.5792 C   0  0  0  0  0  0  0  0  0  0  0  0
  -21.1219    0.1092  -28.3603 C   0  0  0  0  0  0  0  0  0  0  0  0
  -21.0267    1.0920  -27.3393 C   0  0  0  0  0  0  0  0  0  0  0  0
  -21.1865    5.0611  -24.8792 C   0  0  0  0  0  0  0  0  0  0  0  0
  -20.9051    7.3928  -25.8962 C   0  0  0  0  0  0  0  0  0  0  0  0
  -20.6619    2.2658  -25.5266 C   0  0  0  0  0  0  0  0  0  0  0  0
  -25.9568    1.4940  -31.8570 O   0  0  0  0  0  0  0  0  0  0  0  0
  -27.3274    2.2110  -34.4365 N   0  0  0  0  0  0  0  0  0  0  0  0
  -21.4085    3.0531  -26.3397 N   0  0  0  0  0  0  0  0  0  0  0  0
  -20.4251    1.0657  -26.1241 N   0  0  0  0  0  0  0  0  0  0  0  0
  -20.4890    3.0003  -39.6581 F   0  0  0  0  0  0  0  0  0  0  0  0
  1  2  2  0
  1  3  1  0
  2  4  1  0
  3  5  2  0
  4  6  2  0
  5  6  1  0
  5  8  1  0
  7  8  1  0
  7 10  1  0
  9 11  1  0
 10 42  1  0
 11 13  1  0
 11 42  1  0
 12 14  1  0
 12 15  2  0
 12 42  1  0
 13 15  1  0
 14 16  1  0
 14 41  2  0
 15 17  1  0
 16 18  1  0
 16 19  2  0
 17 19  1  0
 17 23  1  0
 18 22  2  0
 18 24  1  0
 20 22  1  0
 21 23  2  0
 21 25  1  0
 22 26  1  0
 23 29  1  0
 24 28  2  0
 25 34  2  0
 26 27  2  0
 26 30  1  0
 27 32  1  0
 28 30  1  0
 29 35  2  0
 30 36  2  0
 31 38  1  0
 31 43  1  0
 32 37  2  0
 32 43  1  0
 33 38  1  0
 33 39  1  0
 34 35  1  0
 34 45  1  0
 36 37  1  0
 37 44  1  0
 40 43  1  0
 40 44  1  0
M  END
$$$$

     RDKit          3D

 45 51  0  0  0  0  0  0  0  0999 V2000
  -31.7586    0.7889  -35.1980 C   0  0  0  0  0  0  0  0  0  0  0  0
  -31.7328    1.7274  -36.3592 C   0  0  0  0  0  0  0  0  0  0  0  0
  -30.4380    0.5215  -34.5154 C   0  0  0  0  0  0  0  0  0  0  0  0
  -29.9691   -0.8039  -34.4853 C   0  0  0  0  0  0  0  0  0  0  0  0
  -29.6910    1.4941  -33.8861 C   0  0  0  0  0  0  0  0  0  0  0  0
  -28.8025   -1.1643  -33.7863 C   0  0  0  0  0  0  0  0  0  0  0  0
  -28.5459    1.1600  -33.1592 C   0  0  0  0  0  0  0  0  0  0  0  0
  -28.0981   -0.1676  -33.0746 C   0  0  0  0  0  0  0  0  0  0  0  0
  -27.0165   -0.6053  -32.1571 C   0  0  0  0  0  0  0  0  0  0  0  0
  -25.7303   -0.0535  -32.0623 C   0  0  0  0  0  0  0  0  0  0  0  0
  -24.3180    4.1153  -39.1206 C   0  0  0  0  0  0  0  0  0  0  0  0
  -24.3723    4.9424  -37.7863 C   0  0  0  0  0  0  0  0  0  0  0  0
  -24.0368    1.1561  -32.4467 C   0  0  0  0  0  0  0  0  0  0  0  0
  -23.8157    0.4773  -31.2778 C   0  0  0  0  0  0  0  0  0  0  0  0
  -23.5607    2.8386  -38.8478 C   0  0  0  0  0  0  0  0  0  0  0  0
  -23.5764    3.1045  -33.9033 C   0  0  0  0  0  0  0  0  0  0  0  0
  -23.4639    4.2450  -36.9130 C   0  0  0  0  0  0  0  0  0  0  0  0
  -23.1281    2.0969  -33.0655 C   0  0  0  0  0  0  0  0  0  0  0  0
  -23.0160    3.0137  -37.4676 C   0  0  0  0  0  0  0  0  0  0  0  0
  -23.0577    4.8515  -35.5864 C   0  0  0  0  0  0  0  0  0  0  0  0
  -22.8264    5.4590  -27.5647 C   0  0  0  0  0  0  0  0  0  0  0  0
  -22.5813    4.7585  -26.3944 C   0  0  0  0  0  0  0  0  0  0  0  0
  -22.2549    5.0330  -28.7607 C   0  0  0  0  0  0  0  0  0  0  0  0
  -21.8283    3.5952  -26.4149 C   0  0  0  0  0  0  0  0  0  0  0  0
  -21.5042    3.8753  -28.7944 C   0  0  0  0  0  0  0  0  0  0  0  0
  -21.2810    3.1024  -27.6144 C   0  0  0  0  0  0  0  0  0  0  0  0
  -21.3163    3.9918  -33.9489 C   0  0  0  0  0  0  0  0  0  0  0  0
  -20.9803    2.9362  -33.0620 C   0  0  0  0  0  0  0  0  0  0  0  0
  -20.0432    1.5185  -28.8350 C   0  0  0  0  0  0  0  0  0  0  0  0
  -20.1925    2.3088  -30.0092 C   0  0  0  0  0  0  0  0  0  0  0  0
  -19.5452    1.9424  -31.2169 C   0  0  0  0  0  0  0  0  0  0  0  0
  -19.6393    2.8131  -32.4201 C   0  0  0  0  0  0  0  0  0  0  0  0
  -19.2760    0.3148  -28.9001 C   0  0  0  0  0  0  0  0  0  0  0  0
  -18.8075    0.7407  -31.2586 C   0  0  0  0  0  0  0  0  0  0  0  0
  -18.6855   -0.0513  -30.1052 C   0  0  0  0  0  0  0  0  0  0  0  0
  -24.7826    3.1840  -34.1711 O   0  0  0  0  0  0  0  0  0  0  0  0
  -31.9556    1.0159  -37.5396 N   0  0  0  0  0  0  0  0  0  0  0  0
  -27.2866   -1.5410  -31.2975 N   0  0  0  0  0  0  0  0  0  0  0  0
  -25.2039    0.8064  -32.9535 N   0  0  0  0  0  0  0  0  0  0  0  0
  -24.8843   -0.3029  -31.0472 N   0  0  0  0  0  0  0  0  0  0  0  0
  -22.6423    3.9551  -34.4936 N   0  0  0  0  0  0  0  0  0  0  0  0
  -21.8392    1.9471  -32.7730 N   0  0  0  0  0  0  0  0  0  0  0  0
  -20.9410    3.4670  -29.9742 N   0  0  0  0  0  0  0  0  0  0  0  0
  -20.6048    1.9128  -27.6457 N   0  0  0  0  0  0  0  0  0  0  0  0
  -18.7358    2.4593  -33.3684 F   0  0  0  0  0  0  0  0  0  0  0  0
  1  2  1  0
  1  3  1  0
  2 37  1  0
  3  4  2  0
  3  5  1  0
  4  6  1  0
  5  7  2  0
  6  8  2  0
  7  8  1  0
  8  9  1  0
  9 10  1  0
  9 38  2  0
 10 39  2  0
 10 40  1  0
 11 12  1  0
 11 15  1  0
 12 17  1  0
 13 14  1  0
 13 18  1  0
 13 39  1  0
 14 40  1  0
 15 19  1  0
 16 18  1  0
 16 36  2  0
 16 41  1  0
 17 19  1  0
 17 20  1  0
 18 42  2  0
 20 41  1  0
 21 22  2  0
 21 23  1  0
 22 24  1  0
 23 25  2  0
 24 26  2  0
 25 26  1  0
 25 43  1  0
 26 44  1  0
 27 28  2  0
 27 41  1  0
 28 32  1  0
 28 42  1  0
 29 30  1  0
 29 33  1  0
 29 44  2  0
 30 31  1  0
 30 43  2  0
 31 32  1  0
 31 34  2  0
 32 45  1  0
 33 35  2  0
 34 35  1  0
M  END
$$$$

     RDKit          3D

 38 43  0  0  0  0  0  0  0  0999 V2000
  -29.5894   -0.8451  -34.0845 C   0  0  0  0  0  0  0  0  0  0  0  0
  -29.4743    0.4066  -34.6601 C   0  0  0  0  0  0  0  0  0  0  0  0
  -29.2629    5.0250  -32.1596 C   0  0  0  0  0  0  0  0  0  0  0  0
  -28.9399    4.1810  -33.2043 C   0  0  0  0  0  0  0  0  0  0  0  0
  -28.4754   -1.4567  -33.5143 C   0  0  0  0  0  0  0  0  0  0  0  0
  -28.2324    1.0318  -34.7520 C   0  0  0  0  0  0  0  0  0  0  0  0
  -28.3159    5.8597  -31.5784 C   0  0  0  0  0  0  0  0  0  0  0  0
  -28.1226    2.3982  -35.3575 C   0  0  0  0  0  0  0  0  0  0  0  0
  -27.6119    4.1312  -33.6588 C   0  0  0  0  0  0  0  0  0  0  0  0
  -27.2332   -0.8660  -33.6335 C   0  0  0  0  0  0  0  0  0  0  0  0
  -27.1256    0.3983  -34.1842 C   0  0  0  0  0  0  0  0  0  0  0  0
  -26.9981    5.8339  -32.0209 C   0  0  0  0  0  0  0  0  0  0  0  0
  -26.6457    4.9619  -33.0670 C   0  0  0  0  0  0  0  0  0  0  0  0
  -25.9267    3.2706  -35.1483 C   0  0  0  0  0  0  0  0  0  0  0  0
  -25.3200    4.9430  -33.5114 C   0  0  0  0  0  0  0  0  0  0  0  0
  -24.9506    4.0876  -34.5437 C   0  0  0  0  0  0  0  0  0  0  0  0
  -23.8258    6.8944  -33.7564 C   0  0  0  0  0  0  0  0  0  0  0  0
  -23.5946    4.1884  -31.1675 C   0  0  0  0  0  0  0  0  0  0  0  0
  -23.2921    5.2038  -32.2460 C   0  0  0  0  0  0  0  0  0  0  0  0
  -22.9856    1.9268  -30.4677 C   0  0  0  0  0  0  0  0  0  0  0  0
  -22.4523    7.2379  -33.1368 C   0  0  0  0  0  0  0  0  0  0  0  0
  -22.2720    6.2687  -32.0487 C   0  0  0  0  0  0  0  0  0  0  0  0
  -21.9695   -0.3932  -30.6243 C   0  0  0  0  0  0  0  0  0  0  0  0
  -21.8209    0.9962  -30.6079 C   0  0  0  0  0  0  0  0  0  0  0  0
  -20.9259   -2.6189  -30.7218 C   0  0  0  0  0  0  0  0  0  0  0  0
  -20.8342   -1.2401  -30.7562 C   0  0  0  0  0  0  0  0  0  0  0  0
  -20.5582    1.5436  -30.6860 C   0  0  0  0  0  0  0  0  0  0  0  0
  -19.7283   -3.3640  -30.7273 C   0  0  0  0  0  0  0  0  0  0  0  0
  -19.5659   -0.6252  -30.8285 C   0  0  0  0  0  0  0  0  0  0  0  0
  -19.4533    0.7910  -30.8483 C   0  0  0  0  0  0  0  0  0  0  0  0
  -18.4351   -1.4389  -30.8179 C   0  0  0  0  0  0  0  0  0  0  0  0
  -28.8005    2.7043  -36.3382 O   0  0  0  0  0  0  0  0  0  0  0  0
  -24.5005    4.2995  -30.3422 O   0  0  0  0  0  0  0  0  0  0  0  0
  -27.2141    3.2703  -34.7268 N   0  0  0  0  0  0  0  0  0  0  0  0
  -24.4333    5.7918  -32.8760 N   0  0  0  0  0  0  0  0  0  0  0  0
  -22.7865    3.1142  -31.2367 N   0  0  0  0  0  0  0  0  0  0  0  0
  -19.7676   -4.7155  -30.6792 N   0  0  0  0  0  0  0  0  0  0  0  0
  -18.5485   -2.7582  -30.7026 N   0  0  0  0  0  0  0  0  0  0  0  0
  1  2  2  0
  1  5  1  0
  2  6  1  0
  3  4  1  0
  3  7  2  0
  4  9  2  0
  5 10  2  0
  6  8  1  0
  6 11  2  0
  7 12  1  0
  8 32  2  0
  8 34  1  0
  9 13  1  0
  9 34  1  0
 10 11  1  0
 12 13  1  0
 13 15  2  0
 14 16  2  0
 14 34  1  0
 15 16  1  0
 15 35  1  0
 17 21  1  0
 17 35  1  0
 18 19  1  0
 18 33  2  0
 18 36  1  0
 19 22  1  0
 19 35  1  0
 20 24  1  0
 20 36  1  0
 21 22  1  0
 23 24  2  0
 23 26  1  0
 24 27  1  0
 25 26  2  0
 25 28  1  0
 26 29  1  0
 27 30  2  0
 28 37  2  0
 28 38  1  0
 29 30  1  0
 29 31  1  0
 31 38  2  0
M  END
$$$$

     RDKit          3D

 36 40  0  0  0  0  0  0  0  0999 V2000
  -28.0959    6.4533  -30.8449 C   0  0  0  0  0  0  0  0  0  0  0  0
  -27.7660    5.4769  -31.8427 C   0  0  0  0  0  0  0  0  0  0  0  0
  -27.5590    7.7534  -30.9357 C   0  0  0  0  0  0  0  0  0  0  0  0
  -26.9035   -0.2446  -32.9290 C   0  0  0  0  0  0  0  0  0  0  0  0
  -26.8363    1.0148  -32.3432 C   0  0  0  0  0  0  0  0  0  0  0  0
  -26.9293    5.8185  -32.9135 C   0  0  0  0  0  0  0  0  0  0  0  0
  -26.7104    8.0736  -32.0344 C   0  0  0  0  0  0  0  0  0  0  0  0
  -26.3760    7.1112  -32.9978 C   0  0  0  0  0  0  0  0  0  0  0  0
  -25.9720   -0.6388  -33.8996 C   0  0  0  0  0  0  0  0  0  0  0  0
  -25.8233    1.9251  -32.7349 C   0  0  0  0  0  0  0  0  0  0  0  0
  -25.5448    7.4793  -34.1738 C   0  0  0  0  0  0  0  0  0  0  0  0
  -24.9761    0.2667  -34.3291 C   0  0  0  0  0  0  0  0  0  0  0  0
  -24.9169    1.5392  -33.7535 C   0  0  0  0  0  0  0  0  0  0  0  0
  -24.1792    3.9180  -34.1752 C   0  0  0  0  0  0  0  0  0  0  0  0
  -23.7559    2.4782  -34.1096 C   0  0  0  0  0  0  0  0  0  0  0  0
  -23.4866    6.2801  -33.5247 C   0  0  0  0  0  0  0  0  0  0  0  0
  -23.0019    4.8750  -33.9302 C   0  0  0  0  0  0  0  0  0  0  0  0
  -22.3296    2.0841  -33.4908 C   0  0  0  0  0  0  0  0  0  0  0  0
  -21.7322    3.1803  -32.7644 C   0  0  0  0  0  0  0  0  0  0  0  0
  -21.3904    0.6218  -31.2946 C   0  0  0  0  0  0  0  0  0  0  0  0
  -21.0320   -1.9356  -30.9010 C   0  0  0  0  0  0  0  0  0  0  0  0
  -20.6883   -0.5723  -30.9067 C   0  0  0  0  0  0  0  0  0  0  0  0
  -20.5695    2.9617  -31.8173 C   0  0  0  0  0  0  0  0  0  0  0  0
  -20.3858   -4.3523  -30.6598 C   0  0  0  0  0  0  0  0  0  0  0  0
  -20.0371   -2.8688  -30.5513 C   0  0  0  0  0  0  0  0  0  0  0  0
  -19.3884   -0.1708  -30.5737 C   0  0  0  0  0  0  0  0  0  0  0  0
  -18.7742   -2.4536  -30.1164 C   0  0  0  0  0  0  0  0  0  0  0  0
  -18.4222   -1.1077  -30.1531 C   0  0  0  0  0  0  0  0  0  0  0  0
  -25.9503    8.3900  -34.9060 O   0  0  0  0  0  0  0  0  0  0  0  0
  -22.7389    2.2043  -33.2019 O   0  0  0  0  0  0  0  0  0  0  0  0
  -19.4596   -5.3299  -31.0405 O   0  0  0  0  0  0  0  0  0  0  0  0
  -19.2279    1.1433  -30.7439 O   0  0  0  0  0  0  0  0  0  0  0  0
  -24.4232    6.8217  -34.5128 N   0  0  0  0  0  0  0  0  0  0  0  0
  -22.0741    4.4300  -32.9524 N   0  0  0  0  0  0  0  0  0  0  0  0
  -20.4376    1.5980  -31.2794 N   0  0  0  0  0  0  0  0  0  0  0  0
  -28.1753   -1.3608  -32.4368 Cl  0  0  0  0  0  0  0  0  0  0  0  0
  1  2  2  0
  1  3  1  0
  2  6  1  0
  3  7  2  0
  4  5  2  0
  4  9  1  0
  4 36  1  0
  5 10  1  0
  6  8  2  0
  7  8  1  0
  8 11  1  0
  9 12  1  0
 10 13  1  0
 11 29  2  0
 11 33  1  0
 12 13  2  0
 13 15  1  0
 14 15  1  0
 14 17  1  0
 15 30  1  0
 16 17  1  0
 16 33  1  0
 17 34  1  0
 18 19  1  0
 18 30  1  0
 19 23  1  0
 19 34  2  0
 20 22  1  0
 20 35  1  0
 21 22  2  0
 21 25  1  0
 22 26  1  0
 23 35  1  0
 24 25  1  0
 24 31  1  0
 25 27  2  0
 26 28  2  0
 26 32  1  0
 27 28  1  0
 32 35  1  0
M  END
$$$$

     RDKit          3D

 52 57  0  0  0  0  0  0  0  0999 V2000
  -32.3082   -1.0818  -36.4123 C   0  0  0  0  0  0  0  0  0  0  0  0
  -31.8058   -2.2032  -36.9134 C   0  0  0  0  0  0  0  0  0  0  0  0
  -31.6612   -0.3685  -35.4708 C   0  0  0  0  0  0  0  0  0  0  0  0
  -30.9491    7.0322  -34.8824 C   0  0  0  0  0  0  0  0  0  0  0  0
  -30.6924   -2.7908  -36.3378 C   0  0  0  0  0  0  0  0  0  0  0  0
  -30.4855   -0.8614  -34.8757 C   0  0  0  0  0  0  0  0  0  0  0  0
  -30.0260   -2.1217  -35.2776 C   0  0  0  0  0  0  0  0  0  0  0  0
  -28.5321   -0.1807  -33.5637 C   0  0  0  0  0  0  0  0  0  0  0  0
  -28.6279    6.5206  -34.2531 C   0  0  0  0  0  0  0  0  0  0  0  0
  -28.2896   -1.0513  -32.5132 C   0  0  0  0  0  0  0  0  0  0  0  0
  -27.2383    0.3876  -34.1513 C   0  0  0  0  0  0  0  0  0  0  0  0
  -27.0639   -1.2851  -31.9550 C   0  0  0  0  0  0  0  0  0  0  0  0
  -26.3277    6.1908  -33.2518 C   0  0  0  0  0  0  0  0  0  0  0  0
  -25.9030   -0.7209  -32.4157 C   0  0  0  0  0  0  0  0  0  0  0  0
  -25.9296    0.0206  -33.6214 C   0  0  0  0  0  0  0  0  0  0  0  0
  -25.1595    6.4157  -34.2979 C   0  0  0  0  0  0  0  0  0  0  0  0
  -24.8223    7.8727  -34.4972 C   0  0  0  0  0  0  0  0  0  0  0  0
  -24.6649    3.3283  -35.1906 C   0  0  0  0  0  0  0  0  0  0  0  0
  -23.9712    0.3412  -30.6560 C   0  0  0  0  0  0  0  0  0  0  0  0
  -24.0470    1.7798  -31.2698 C   0  0  0  0  0  0  0  0  0  0  0  0
  -24.0381    2.1340  -32.6433 C   0  0  0  0  0  0  0  0  0  0  0  0
  -23.9877    3.5331  -32.8645 C   0  0  0  0  0  0  0  0  0  0  0  0
  -23.9771    8.1277  -35.6818 C   0  0  0  0  0  0  0  0  0  0  0  0
  -23.9462    5.5378  -34.3753 C   0  0  0  0  0  0  0  0  0  0  0  0
  -23.6754    4.1469  -31.4392 C   0  0  0  0  0  0  0  0  0  0  0  0
  -23.1541    2.8982  -30.5759 C   0  0  0  0  0  0  0  0  0  0  0  0
  -23.0041    5.7810  -35.5210 C   0  0  0  0  0  0  0  0  0  0  0  0
  -22.8264    7.2048  -35.9063 C   0  0  0  0  0  0  0  0  0  0  0  0
  -22.5619   -0.1129  -30.3295 C   0  0  0  0  0  0  0  0  0  0  0  0
  -21.0246   -1.2870  -28.9227 C   0  0  0  0  0  0  0  0  0  0  0  0
  -21.0026    2.5185  -31.9188 C   0  0  0  0  0  0  0  0  0  0  0  0
  -20.7282   -0.4715  -27.8287 C   0  0  0  0  0  0  0  0  0  0  0  0
  -20.6722    3.3667  -29.7915 C   0  0  0  0  0  0  0  0  0  0  0  0
  -20.1573   -3.0867  -30.4795 C   0  0  0  0  0  0  0  0  0  0  0  0
  -19.9990   -2.2205  -29.2945 C   0  0  0  0  0  0  0  0  0  0  0  0
  -19.5439   -0.5487  -27.1357 C   0  0  0  0  0  0  0  0  0  0  0  0
  -19.5187    2.7192  -31.7843 C   0  0  0  0  0  0  0  0  0  0  0  0
  -19.2742    3.1005  -30.3625 C   0  0  0  0  0  0  0  0  0  0  0  0
  -18.7921   -2.3002  -28.5770 C   0  0  0  0  0  0  0  0  0  0  0  0
  -18.5890   -1.5145  -27.4745 C   0  0  0  0  0  0  0  0  0  0  0  0
  -17.2755   -1.6206  -26.6243 C   0  0  0  0  0  0  0  0  0  0  0  0
  -30.2374   -4.0147  -36.8291 O   0  0  0  0  0  0  0  0  0  0  0  0
  -29.8670   -0.0194  -34.0003 O   0  0  0  0  0  0  0  0  0  0  0  0
  -29.6651    7.5129  -34.1141 O   0  0  0  0  0  0  0  0  0  0  0  0
  -27.6448    6.7384  -33.4462 O   0  0  0  0  0  0  0  0  0  0  0  0
  -26.3000    5.8347  -32.0027 O   0  0  0  0  0  0  0  0  0  0  0  0
  -24.6456   -0.7303  -31.7038 O   0  0  0  0  0  0  0  0  0  0  0  0
  -22.2941   -1.1580  -29.4337 O   0  0  0  0  0  0  0  0  0  0  0  0
  -21.1572   -2.9583  -31.1901 O   0  0  0  0  0  0  0  0  0  0  0  0
  -19.3038   -4.0565  -30.6803 O   0  0  0  0  0  0  0  0  0  0  0  0
  -24.1628    4.1958  -33.9927 N   0  0  0  0  0  0  0  0  0  0  0  0
  -21.6605    2.8348  -30.7089 N   0  0  0  0  0  0  0  0  0  0  0  0
  1  2  2  0
  1  3  1  0
  2  5  1  0
  3  6  2  0
  4 44  1  0
  5  7  2  0
  5 42  1  0
  6  7  1  0
  6 43  1  0
  8 10  2  0
  8 11  1  0
  8 43  1  0
  9 44  1  0
  9 45  1  0
 10 12  1  0
 11 15  2  0
 12 14  2  0
 13 16  1  0
 13 45  1  0
 13 46  2  0
 14 15  1  0
 14 47  1  0
 16 17  1  0
 16 24  1  0
 17 23  1  0
 18 51  1  0
 19 20  1  0
 19 29  1  0
 19 47  1  0
 20 21  1  0
 20 26  1  0
 21 22  1  0
 22 25  1  0
 22 51  1  0
 23 28  1  0
 24 27  1  0
 24 51  1  0
 25 26  1  0
 26 52  1  0
 27 28  1  0
 29 48  1  0
 30 32  2  0
 30 35  1  0
 30 48  1  0
 31 37  1  0
 31 52  1  0
 32 36  1  0
 33 38  1  0
 33 52  1  0
 34 35  1  0
 34 49  2  0
 34 50  1  0
 35 39  2  0
 36 40  2  0
 37 38  1  0
 39 40  1  0
 40 41  1  0
M  END
$$$$

     RDKit          3D

 42 47  0  0  0  0  0  0  0  0999 V2000
  -31.7023   -1.0939  -36.2259 C   0  0  0  0  0  0  0  0  0  0  0  0
  -31.1322   -0.1273  -35.3630 C   0  0  0  0  0  0  0  0  0  0  0  0
  -30.1600   -2.7723  -35.4417 C   0  0  0  0  0  0  0  0  0  0  0  0
  -30.0630   -0.5275  -34.5763 C   0  0  0  0  0  0  0  0  0  0  0  0
  -29.5626   -1.8273  -34.6045 C   0  0  0  0  0  0  0  0  0  0  0  0
  -29.4822    0.4992  -33.6947 C   0  0  0  0  0  0  0  0  0  0  0  0
  -28.0515    0.7193  -33.6605 C   0  0  0  0  0  0  0  0  0  0  0  0
  -27.5214    0.3478  -32.4709 C   0  0  0  0  0  0  0  0  0  0  0  0
  -27.2489    1.2725  -34.6686 C   0  0  0  0  0  0  0  0  0  0  0  0
  -26.2076    0.5052  -32.1999 C   0  0  0  0  0  0  0  0  0  0  0  0
  -25.8818    1.4348  -34.4703 C   0  0  0  0  0  0  0  0  0  0  0  0
  -25.3286    1.0040  -33.2503 C   0  0  0  0  0  0  0  0  0  0  0  0
  -23.9319    1.1214  -33.1228 C   0  0  0  0  0  0  0  0  0  0  0  0
  -23.7322    1.9836  -35.2864 C   0  0  0  0  0  0  0  0  0  0  0  0
  -23.3042    0.7601  -31.8961 C   0  0  0  0  0  0  0  0  0  0  0  0
  -23.2026    1.7106  -30.8755 C   0  0  0  0  0  0  0  0  0  0  0  0
  -22.8240   -0.5424  -31.7360 C   0  0  0  0  0  0  0  0  0  0  0  0
  -22.8328    2.4568  -36.3140 C   0  0  0  0  0  0  0  0  0  0  0  0
  -22.4795    1.3951  -29.7263 C   0  0  0  0  0  0  0  0  0  0  0  0
  -22.6194    1.6986  -37.4792 C   0  0  0  0  0  0  0  0  0  0  0  0
  -22.3502    2.3612  -28.7054 C   0  0  0  0  0  0  0  0  0  0  0  0
  -22.1447   -0.8932  -30.5958 C   0  0  0  0  0  0  0  0  0  0  0  0
  -22.2001    3.6989  -36.1641 C   0  0  0  0  0  0  0  0  0  0  0  0
  -21.9408    0.0927  -29.5738 C   0  0  0  0  0  0  0  0  0  0  0  0
  -21.7706    2.1899  -38.4741 C   0  0  0  0  0  0  0  0  0  0  0  0
  -21.5867    2.0656  -27.5949 C   0  0  0  0  0  0  0  0  0  0  0  0
  -21.2161    2.5085  -25.1713 C   0  0  0  0  0  0  0  0  0  0  0  0
  -21.4020    4.1819  -37.1652 C   0  0  0  0  0  0  0  0  0  0  0  0
  -21.1812   -0.1797  -28.4033 C   0  0  0  0  0  0  0  0  0  0  0  0
  -20.9904    0.8028  -27.4308 C   0  0  0  0  0  0  0  0  0  0  0  0
  -21.1882    3.4527  -38.3399 C   0  0  0  0  0  0  0  0  0  0  0  0
  -21.1999    4.3319  -26.7181 C   0  0  0  0  0  0  0  0  0  0  0  0
  -20.3006    3.9903  -39.4171 C   0  0  0  0  0  0  0  0  0  0  0  0
  -25.9420    0.1970  -30.9957 O   0  0  0  0  0  0  0  0  0  0  0  0
  -21.5677    5.0011  -27.6459 O   0  0  0  0  0  0  0  0  0  0  0  0
  -19.3946    4.7866  -39.0839 O   0  0  0  0  0  0  0  0  0  0  0  0
  -31.1794   -2.3812  -36.1764 N   0  0  0  0  0  0  0  0  0  0  0  0
  -25.0625    1.9525  -35.4371 N   0  0  0  0  0  0  0  0  0  0  0  0
  -23.2040    1.5707  -34.1302 N   0  0  0  0  0  0  0  0  0  0  0  0
  -21.3703    2.9989  -26.5551 N   0  0  0  0  0  0  0  0  0  0  0  0
  -20.5336    4.9453  -25.6333 N   0  0  0  0  0  0  0  0  0  0  0  0
  -21.8706   -2.1345  -30.4207 F   0  0  0  0  0  0  0  0  0  0  0  0
  1  2  1  0
  1 37  1  0
  2  4  2  0
  3  5  1  0
  3 37  2  0
  4  5  1  0
  4  6  1  0
  6  7  1  0
  7  8  2  0
  7  9  1  0
  8 10  1  0
  9 11  2  0
 10 12  1  0
 10 34  2  0
 11 12  1  0
 11 38  1  0
 12 13  1  0
 13 15  1  0
 13 39  2  0
 14 18  1  0
 14 38  2  0
 14 39  1  0
 15 16  1  0
 15 17  1  0
 16 19  2  0
 17 22  2  0
 18 20  1  0
 18 23  1  0
 19 21  1  0
 19 24  1  0
 20 25  2  0
 21 26  2  0
 22 24  1  0
 22 42  1  0
 23 28  2  0
 24 29  1  0
 25 31  1  0
 26 30  1  0
 26 40  1  0
 27 40  1  0
 28 31  1  0
 29 30  2  0
 31 33  1  0
 32 35  2  0
 32 40  1  0
 32 41  1  0
 33 36  2  0
M  END
$$$$

     RDKit          3D

 50 56  0  0  0  0  0  0  0  0999 V2000
  -31.0624   -1.5420  -36.0469 C   0  0  0  0  0  0  0  0  0  0  0  0
  -30.7547   -2.9572  -36.4020 C   0  0  0  0  0  0  0  0  0  0  0  0
  -30.3034    0.5408  -35.0938 C   0  0  0  0  0  0  0  0  0  0  0  0
  -30.1353   -0.8580  -35.0956 C   0  0  0  0  0  0  0  0  0  0  0  0
  -29.5502    1.3442  -34.2368 C   0  0  0  0  0  0  0  0  0  0  0  0
  -29.1174   -1.4590  -34.2580 C   0  0  0  0  0  0  0  0  0  0  0  0
  -28.5724    0.7991  -33.4379 C   0  0  0  0  0  0  0  0  0  0  0  0
  -28.2598   -0.5613  -33.4518 C   0  0  0  0  0  0  0  0  0  0  0  0
  -27.1488   -1.1486  -32.5688 C   0  0  0  0  0  0  0  0  0  0  0  0
  -26.0011   -0.2277  -32.1398 C   0  0  0  0  0  0  0  0  0  0  0  0
  -25.1714    0.4614  -34.4905 C   0  0  0  0  0  0  0  0  0  0  0  0
  -24.5239    0.9131  -30.9166 C   0  0  0  0  0  0  0  0  0  0  0  0
  -24.5544    4.0801  -32.9410 C   0  0  0  0  0  0  0  0  0  0  0  0
  -24.2752    1.1803  -32.2430 C   0  0  0  0  0  0  0  0  0  0  0  0
  -23.7920    4.8264  -37.8442 C   0  0  0  0  0  0  0  0  0  0  0  0
  -23.5733    3.2278  -33.4388 C   0  0  0  0  0  0  0  0  0  0  0  0
  -23.4896    3.8714  -36.6329 C   0  0  0  0  0  0  0  0  0  0  0  0
  -23.2791    2.0670  -32.7600 C   0  0  0  0  0  0  0  0  0  0  0  0
  -23.0106    3.1211  -39.4270 C   0  0  0  0  0  0  0  0  0  0  0  0
  -23.0408    4.6669  -35.3766 C   0  0  0  0  0  0  0  0  0  0  0  0
  -22.8775    2.1143  -38.3001 C   0  0  0  0  0  0  0  0  0  0  0  0
  -22.7284    5.0977  -28.5369 C   0  0  0  0  0  0  0  0  0  0  0  0
  -22.8089    5.6644  -27.2337 C   0  0  0  0  0  0  0  0  0  0  0  0
  -22.3948    2.8953  -37.0719 C   0  0  0  0  0  0  0  0  0  0  0  0
  -22.4107    4.8666  -26.1402 C   0  0  0  0  0  0  0  0  0  0  0  0
  -22.0224    1.9489  -32.2677 C   0  0  0  0  0  0  0  0  0  0  0  0
  -22.2026    3.8124  -28.7373 C   0  0  0  0  0  0  0  0  0  0  0  0
  -21.7481    3.0831  -27.5986 C   0  0  0  0  0  0  0  0  0  0  0  0
  -21.8811    3.5591  -26.3344 C   0  0  0  0  0  0  0  0  0  0  0  0
  -21.3340    2.5201  -25.4303 C   0  0  0  0  0  0  0  0  0  0  0  0
  -21.2826    3.7413  -33.8395 C   0  0  0  0  0  0  0  0  0  0  0  0
  -21.0429    1.8542  -27.5472 C   0  0  0  0  0  0  0  0  0  0  0  0
  -21.0430    2.9070  -32.7091 C   0  0  0  0  0  0  0  0  0  0  0  0
  -20.3969    1.2434  -28.6891 C   0  0  0  0  0  0  0  0  0  0  0  0
  -20.1853    2.0343  -29.8081 C   0  0  0  0  0  0  0  0  0  0  0  0
  -19.9497   -0.0608  -28.6305 C   0  0  0  0  0  0  0  0  0  0  0  0
  -19.5483    1.4994  -30.9066 C   0  0  0  0  0  0  0  0  0  0  0  0
  -19.2279   -0.5647  -29.7177 C   0  0  0  0  0  0  0  0  0  0  0  0
  -19.0485    0.1931  -30.8953 C   0  0  0  0  0  0  0  0  0  0  0  0
  -32.3991   -1.2565  -35.9433 O   0  0  0  0  0  0  0  0  0  0  0  0
  -25.4693    3.7802  -32.1683 O   0  0  0  0  0  0  0  0  0  0  0  0
  -20.8257    1.5317  -26.3138 O   0  0  0  0  0  0  0  0  0  0  0  0
  -18.8282    1.7208  -33.3820 O   0  0  0  0  0  0  0  0  0  0  0  0
  -18.6468    3.6959  -31.9554 O   0  0  0  0  0  0  0  0  0  0  0  0
  -25.6010    0.0410  -30.8710 N   0  0  0  0  0  0  0  0  0  0  0  0
  -25.1758    0.4421  -33.0105 N   0  0  0  0  0  0  0  0  0  0  0  0
  -24.0615    4.0661  -39.0857 N   0  0  0  0  0  0  0  0  0  0  0  0
  -22.6424    3.8340  -34.2696 N   0  0  0  0  0  0  0  0  0  0  0  0
  -19.4051    2.5009  -32.2858 S   0  0  0  0  0  0  0  0  0  0  0  0
  -18.6493   -1.7713  -29.5425 F   0  0  0  0  0  0  0  0  0  0  0  0
  1  2  1  0
  1  4  1  0
  1 40  1  0
  3  4  2  0
  3  5  1  0
  4  6  1  0
  5  7  2  0
  6  8  2  0
  7  8  1  0
  8  9  1  0
  9 10  1  0
 10 45  2  0
 10 46  1  0
 11 46  1  0
 12 14  1  0
 12 45  1  0
 13 16  1  0
 13 41  2  0
 14 18  1  0
 14 46  1  0
 15 17  1  0
 15 47  1  0
 16 18  1  0
 16 48  1  0
 17 20  1  0
 17 24  1  0
 18 26  2  0
 19 21  1  0
 19 47  1  0
 20 48  1  0
 21 24  1  0
 22 23  1  0
 22 27  2  0
 23 25  1  0
 25 29  2  0
 26 33  1  0
 27 28  1  0
 28 29  1  0
 28 32  2  0
 29 30  1  0
 30 42  1  0
 31 33  1  0
 31 48  1  0
 32 34  1  0
 32 42  1  0
 33 49  1  0
 34 35  1  0
 34 36  1  0
 35 37  2  0
 36 38  2  0
 37 39  1  0
 37 49  1  0
 38 39  1  0
 38 50  1  0
 43 49  1  0
 44 49  1  0
M  END
$$$$

     RDKit          3D

 62 70  0  0  0  0  0  0  0  0999 V2000
  -31.7178    0.4419  -36.5674 C   0  0  0  0  0  0  0  0  0  0  0  0
  -31.2105   -0.8377  -36.2866 C   0  0  0  0  0  0  0  0  0  0  0  0
  -31.0006   -3.1662  -36.9636 C   0  0  0  0  0  0  0  0  0  0  0  0
  -31.1329    1.5475  -35.9310 C   0  0  0  0  0  0  0  0  0  0  0  0
  -30.5020   -5.3072  -38.1664 C   0  0  0  0  0  0  0  0  0  0  0  0
  -30.1235    1.4112  -34.9809 C   0  0  0  0  0  0  0  0  0  0  0  0
  -29.7210    0.0579  -34.6830 C   0  0  0  0  0  0  0  0  0  0  0  0
  -29.5737    3.8637  -34.8634 C   0  0  0  0  0  0  0  0  0  0  0  0
  -29.3361    7.7742  -30.3125 C   0  0  0  0  0  0  0  0  0  0  0  0
  -29.0090   -1.1372  -32.5866 C   0  0  0  0  0  0  0  0  0  0  0  0
  -29.0618    4.8904  -33.8376 C   0  0  0  0  0  0  0  0  0  0  0  0
  -28.8752    7.2764  -29.1068 C   0  0  0  0  0  0  0  0  0  0  0  0
  -28.6977   -0.3845  -33.7323 C   0  0  0  0  0  0  0  0  0  0  0  0
  -28.5150    7.7381  -31.4090 C   0  0  0  0  0  0  0  0  0  0  0  0
  -28.3152    2.8271  -35.2019 C   0  0  0  0  0  0  0  0  0  0  0  0
  -27.9889   -1.4524  -31.6640 C   0  0  0  0  0  0  0  0  0  0  0  0
  -27.5616    4.6401  -33.8120 C   0  0  0  0  0  0  0  0  0  0  0  0
  -27.5898    6.8131  -29.0029 C   0  0  0  0  0  0  0  0  0  0  0  0
  -27.3633   -0.0897  -34.0219 C   0  0  0  0  0  0  0  0  0  0  0  0
  -27.1862    3.4166  -34.5408 C   0  0  0  0  0  0  0  0  0  0  0  0
  -27.1959    7.3475  -31.3195 C   0  0  0  0  0  0  0  0  0  0  0  0
  -26.7164    6.8462  -30.0799 C   0  0  0  0  0  0  0  0  0  0  0  0
  -26.6823   -1.0476  -31.9559 C   0  0  0  0  0  0  0  0  0  0  0  0
  -26.3576   -0.3689  -33.1009 C   0  0  0  0  0  0  0  0  0  0  0  0
  -25.8293    3.0625  -35.0093 C   0  0  0  0  0  0  0  0  0  0  0  0
  -25.3147    6.3863  -29.8759 C   0  0  0  0  0  0  0  0  0  0  0  0
  -24.7555    2.3692  -34.0873 C   0  0  0  0  0  0  0  0  0  0  0  0
  -24.5797    0.8251  -34.3549 C   0  0  0  0  0  0  0  0  0  0  0  0
  -24.2899   -0.3155  -32.0937 C   0  0  0  0  0  0  0  0  0  0  0  0
  -22.9879    7.1396  -29.2397 C   0  0  0  0  0  0  0  0  0  0  0  0
  -22.8877   -0.1185  -31.8652 C   0  0  0  0  0  0  0  0  0  0  0  0
  -22.5495    5.4398  -26.9093 C   0  0  0  0  0  0  0  0  0  0  0  0
  -22.3061    0.7531  -29.6081 C   0  0  0  0  0  0  0  0  0  0  0  0
  -22.2668    4.6057  -25.7966 C   0  0  0  0  0  0  0  0  0  0  0  0
  -22.2226    5.0279  -28.2229 C   0  0  0  0  0  0  0  0  0  0  0  0
  -21.7125    3.7220  -28.3853 C   0  0  0  0  0  0  0  0  0  0  0  0
  -21.6842    3.3208  -26.0418 C   0  0  0  0  0  0  0  0  0  0  0  0
  -21.6358    5.4841  -30.5617 C   0  0  0  0  0  0  0  0  0  0  0  0
  -21.2950   -1.1290  -30.1484 C   0  0  0  0  0  0  0  0  0  0  0  0
  -21.4520    2.8578  -27.3606 C   0  0  0  0  0  0  0  0  0  0  0  0
  -20.8792   -2.3263  -30.7329 C   0  0  0  0  0  0  0  0  0  0  0  0
  -20.7428   -0.6717  -28.9642 C   0  0  0  0  0  0  0  0  0  0  0  0
  -20.9155    1.4202  -27.5574 C   0  0  0  0  0  0  0  0  0  0  0  0
  -19.8453   -3.0339  -30.0809 C   0  0  0  0  0  0  0  0  0  0  0  0
  -19.6987   -1.3858  -28.3484 C   0  0  0  0  0  0  0  0  0  0  0  0
  -19.2325   -2.5790  -28.9137 C   0  0  0  0  0  0  0  0  0  0  0  0
  -30.0704   -3.3689  -36.2500 O   0  0  0  0  0  0  0  0  0  0  0  0
  -26.8338    5.7030  -33.9094 O   0  0  0  0  0  0  0  0  0  0  0  0
  -25.0858    5.1985  -30.0632 O   0  0  0  0  0  0  0  0  0  0  0  0
  -23.7160    3.0587  -33.8030 O   0  0  0  0  0  0  0  0  0  0  0  0
  -23.0769    1.7283  -29.6289 O   0  0  0  0  0  0  0  0  0  0  0  0
  -31.7123   -1.9685  -36.9519 N   0  0  0  0  0  0  0  0  0  0  0  0
  -31.4198   -4.1813  -37.8064 N   0  0  0  0  0  0  0  0  0  0  0  0
  -30.2898   -1.0012  -35.3291 N   0  0  0  0  0  0  0  0  0  0  0  0
  -29.4922    2.5628  -34.4151 N   0  0  0  0  0  0  0  0  0  0  0  0
  -25.0248    0.0390  -33.1780 N   0  0  0  0  0  0  0  0  0  0  0  0
  -24.4282    7.3016  -29.4449 N   0  0  0  0  0  0  0  0  0  0  0  0
  -22.2539   -0.2124  -30.5758 N   0  0  0  0  0  0  0  0  0  0  0  0
  -22.4037    5.8254  -29.3678 N   0  0  0  0  0  0  0  0  0  0  0  0
  -21.3511    0.5313  -28.6266 N   0  0  0  0  0  0  0  0  0  0  0  0
  -25.2520   -1.2795  -31.0020 S   0  0  0  0  0  0  0  0  0  0  0  0
  -19.4127   -4.5551  -30.6838 Cl  0  0  0  0  0  0  0  0  0  0  0  0
  1  2  2  0
  1  4  1  0
  2 52  1  0
  2 54  1  0
  3 47  2  0
  3 52  1  0
  3 53  1  0
  4  6  2  0
  5 53  1  0
  6  7  1  0
  6 55  1  0
  7 13  1  0
  7 54  2  0
  8 11  1  0
  8 55  1  0
  9 12  2  0
  9 14  1  0
 10 13  2  0
 10 16  1  0
 11 17  1  0
 12 18  1  0
 13 19  1  0
 14 21  2  0
 15 20  1  0
 15 55  1  0
 16 23  2  0
 17 20  1  0
 17 48  1  0
 18 22  2  0
 19 24  2  0
 20 25  1  0
 21 22  1  0
 22 26  1  0
 23 24  1  0
 23 61  1  0
 24 56  1  0
 25 27  1  0
 26 49  2  0
 26 57  1  0
 27 28  1  0
 27 50  2  0
 28 56  1  0
 29 31  1  0
 29 56  1  0
 29 61  1  0
 30 57  2  3
 30 59  1  0
 31 58  1  0
 32 34  2  0
 32 35  1  0
 33 51  2  0
 33 58  1  0
 33 60  1  0
 34 37  1  0
 35 36  2  0
 35 59  1  0
 36 40  1  0
 37 40  2  0
 38 59  1  0
 39 41  1  0
 39 42  2  0
 39 58  1  0
 40 43  1  0
 41 44  2  0
 42 45  1  0
 42 60  1  0
 43 60  1  0
 44 46  1  0
 44 62  1  0
 45 46  2  0
M  END
$$$$

     RDKit          3D

 46 52  0  0  0  0  0  0  0  0999 V2000
  -31.3138    8.1516  -29.8223 C   0  0  0  0  0  0  0  0  0  0  0  0
  -30.5598    7.7486  -28.7409 C   0  0  0  0  0  0  0  0  0  0  0  0
  -30.6867    8.3255  -31.0610 C   0  0  0  0  0  0  0  0  0  0  0  0
  -29.2097    7.5448  -28.8596 C   0  0  0  0  0  0  0  0  0  0  0  0
  -29.3331    8.0762  -31.1198 C   0  0  0  0  0  0  0  0  0  0  0  0
  -28.6172    8.3687  -32.3971 C   0  0  0  0  0  0  0  0  0  0  0  0
  -27.7349    0.4446  -33.9989 C   0  0  0  0  0  0  0  0  0  0  0  0
  -27.2869    1.7332  -34.3485 C   0  0  0  0  0  0  0  0  0  0  0  0
  -27.1914    8.7059  -34.9091 C   0  0  0  0  0  0  0  0  0  0  0  0
  -26.8282   -0.5394  -33.7108 C   0  0  0  0  0  0  0  0  0  0  0  0
  -26.9214    7.7083  -33.8871 C   0  0  0  0  0  0  0  0  0  0  0  0
  -26.1858    5.0575  -32.5650 C   0  0  0  0  0  0  0  0  0  0  0  0
  -26.0025    6.6456  -34.4480 C   0  0  0  0  0  0  0  0  0  0  0  0
  -25.9281    1.9730  -34.3960 C   0  0  0  0  0  0  0  0  0  0  0  0
  -25.4587   -0.2901  -33.8515 C   0  0  0  0  0  0  0  0  0  0  0  0
  -25.2910    4.2758  -31.5869 C   0  0  0  0  0  0  0  0  0  0  0  0
  -24.9766    0.9611  -34.2223 C   0  0  0  0  0  0  0  0  0  0  0  0
  -24.9815    2.0263  -30.6807 C   0  0  0  0  0  0  0  0  0  0  0  0
  -23.9704    4.1657  -32.1657 C   0  0  0  0  0  0  0  0  0  0  0  0
  -24.1249    5.2174  -33.8057 C   0  0  0  0  0  0  0  0  0  0  0  0
  -23.2259    5.3364  -32.6239 C   0  0  0  0  0  0  0  0  0  0  0  0
  -22.9729   -0.7683  -30.8948 C   0  0  0  0  0  0  0  0  0  0  0  0
  -23.2005    3.0188  -31.8300 C   0  0  0  0  0  0  0  0  0  0  0  0
  -22.7391    1.5394  -29.8366 C   0  0  0  0  0  0  0  0  0  0  0  0
  -22.9357    2.2140  -34.7736 C   0  0  0  0  0  0  0  0  0  0  0  0
  -22.5363   -2.0894  -31.0272 C   0  0  0  0  0  0  0  0  0  0  0  0
  -22.2409    0.1540  -30.1707 C   0  0  0  0  0  0  0  0  0  0  0  0
  -21.7420    2.5014  -33.9124 C   0  0  0  0  0  0  0  0  0  0  0  0
  -21.8904    2.8592  -32.5172 C   0  0  0  0  0  0  0  0  0  0  0  0
  -21.3507   -2.5409  -30.4440 C   0  0  0  0  0  0  0  0  0  0  0  0
  -20.9948   -0.2905  -29.6056 C   0  0  0  0  0  0  0  0  0  0  0  0
  -20.7397    3.1027  -31.7620 C   0  0  0  0  0  0  0  0  0  0  0  0
  -20.5797   -1.6001  -29.7540 C   0  0  0  0  0  0  0  0  0  0  0  0
  -20.4710    2.3675  -34.4478 C   0  0  0  0  0  0  0  0  0  0  0  0
  -19.4918    2.9228  -32.3484 C   0  0  0  0  0  0  0  0  0  0  0  0
  -19.3139   -1.7402  -29.0465 C   0  0  0  0  0  0  0  0  0  0  0  0
  -19.3756    2.5747  -33.6590 C   0  0  0  0  0  0  0  0  0  0  0  0
  -19.0350   -0.4591  -28.5821 C   0  0  0  0  0  0  0  0  0  0  0  0
  -25.4647    0.9595  -30.2565 O   0  0  0  0  0  0  0  0  0  0  0  0
  -23.6721    1.0835  -34.2800 O   0  0  0  0  0  0  0  0  0  0  0  0
  -28.6387    7.6844  -30.0607 N   0  0  0  0  0  0  0  0  0  0  0  0
  -27.9021    7.2218  -32.9647 N   0  0  0  0  0  0  0  0  0  0  0  0
  -25.7947    3.0047  -31.1367 N   0  0  0  0  0  0  0  0  0  0  0  0
  -25.3254    5.9569  -33.3434 N   0  0  0  0  0  0  0  0  0  0  0  0
  -23.6180    2.1919  -30.7992 N   0  0  0  0  0  0  0  0  0  0  0  0
  -20.0730    0.4270  -28.9212 N   0  0  0  0  0  0  0  0  0  0  0  0
  1  2  2  0
  1  3  1  0
  2  4  1  0
  3  5  2  0
  4 41  2  0
  5  6  1  0
  5 41  1  0
  6 42  1  0
  7  8  2  0
  7 10  1  0
  8 14  1  0
  9 11  1  0
 10 15  2  0
 11 13  1  0
 11 42  1  0
 12 16  1  0
 12 44  1  0
 13 44  1  0
 14 17  2  0
 15 17  1  0
 16 19  1  0
 16 43  1  0
 17 40  1  0
 18 39  2  0
 18 43  1  0
 18 45  1  0
 19 21  1  0
 19 23  1  0
 20 21  1  0
 20 44  1  0
 22 26  2  0
 22 27  1  0
 23 29  1  0
 23 45  1  0
 24 27  1  0
 24 45  1  0
 25 28  1  0
 25 40  1  0
 26 30  1  0
 27 31  2  0
 28 29  1  0
 28 34  2  0
 29 32  2  0
 30 33  2  0
 31 33  1  0
 31 46  1  0
 32 35  1  0
 33 36  1  0
 34 37  1  0
 35 37  2  0
 36 38  1  0
 38 46  1  0
M  END
$$$$

     RDKit          3D

 43 47  0  0  0  0  0  0  0  0999 V2000
  -31.9133    0.7310  -34.1902 C   0  0  0  0  0  0  0  0  0  0  0  0
  -31.7642    2.0830  -33.9172 C   0  0  0  0  0  0  0  0  0  0  0  0
  -30.8135   -0.0663  -34.1542 C   0  0  0  0  0  0  0  0  0  0  0  0
  -29.6225    0.4776  -33.7703 C   0  0  0  0  0  0  0  0  0  0  0  0
  -29.4858    1.8349  -33.3740 C   0  0  0  0  0  0  0  0  0  0  0  0
  -28.5243   -0.3399  -33.7999 C   0  0  0  0  0  0  0  0  0  0  0  0
  -27.4222    0.0891  -33.2649 C   0  0  0  0  0  0  0  0  0  0  0  0
  -27.3064    1.4175  -32.8304 C   0  0  0  0  0  0  0  0  0  0  0  0
  -26.0415    1.8611  -32.2952 C   0  0  0  0  0  0  0  0  0  0  0  0
  -25.7523    3.1920  -32.3452 C   0  0  0  0  0  0  0  0  0  0  0  0
  -25.5059   -0.6878  -34.3615 C   0  0  0  0  0  0  0  0  0  0  0  0
  -25.1688    0.9400  -31.7173 C   0  0  0  0  0  0  0  0  0  0  0  0
  -24.5522    3.6304  -31.8747 C   0  0  0  0  0  0  0  0  0  0  0  0
  -23.9731    1.4220  -31.1687 C   0  0  0  0  0  0  0  0  0  0  0  0
  -23.6553    2.7600  -31.2835 C   0  0  0  0  0  0  0  0  0  0  0  0
  -23.0711   -0.7849  -30.8268 C   0  0  0  0  0  0  0  0  0  0  0  0
  -22.9803    5.0306  -29.1816 C   0  0  0  0  0  0  0  0  0  0  0  0
  -23.0089    5.4866  -27.8578 C   0  0  0  0  0  0  0  0  0  0  0  0
  -22.4229    3.7831  -29.4664 C   0  0  0  0  0  0  0  0  0  0  0  0
  -22.4214    4.7314  -26.8575 C   0  0  0  0  0  0  0  0  0  0  0  0
  -21.7836   -2.9238  -30.6503 C   0  0  0  0  0  0  0  0  0  0  0  0
  -21.8521   -1.5499  -30.5039 C   0  0  0  0  0  0  0  0  0  0  0  0
  -21.7442    3.0979  -28.4653 C   0  0  0  0  0  0  0  0  0  0  0  0
  -21.7622    3.5477  -27.1703 C   0  0  0  0  0  0  0  0  0  0  0  0
  -20.7681   -0.8575  -29.9567 C   0  0  0  0  0  0  0  0  0  0  0  0
  -20.6160   -3.5507  -30.3611 C   0  0  0  0  0  0  0  0  0  0  0  0
  -20.4287    3.0277  -34.9612 C   0  0  0  0  0  0  0  0  0  0  0  0
  -19.9661    2.4119  -33.6799 C   0  0  0  0  0  0  0  0  0  0  0  0
  -19.6113   -2.9212  -29.7524 C   0  0  0  0  0  0  0  0  0  0  0  0
  -19.6758   -1.5635  -29.5906 C   0  0  0  0  0  0  0  0  0  0  0  0
  -18.4709   -0.8585  -28.9309 C   0  0  0  0  0  0  0  0  0  0  0  0
  -18.5396    2.5353  -33.3805 C   0  0  0  0  0  0  0  0  0  0  0  0
  -26.3868   -0.7654  -33.3127 O   0  0  0  0  0  0  0  0  0  0  0  0
  -24.0106   -1.3342  -31.3233 O   0  0  0  0  0  0  0  0  0  0  0  0
  -21.8247    4.7795  -32.7484 O   0  0  0  0  0  0  0  0  0  0  0  0
  -20.9130    2.4852  -32.6323 O   0  0  0  0  0  0  0  0  0  0  0  0
  -20.1263    4.2267  -31.0987 O   0  0  0  0  0  0  0  0  0  0  0  0
  -30.5955    2.6297  -33.5382 N   0  0  0  0  0  0  0  0  0  0  0  0
  -28.3440    2.2760  -32.8552 N   0  0  0  0  0  0  0  0  0  0  0  0
  -23.0274    0.5769  -30.6115 N   0  0  0  0  0  0  0  0  0  0  0  0
  -22.4139    3.2382  -30.7898 N   0  0  0  0  0  0  0  0  0  0  0  0
  -21.2762    3.7827  -31.8562 S   0  0  0  0  0  0  0  0  0  0  0  0
  -20.4066   -5.2865  -30.6343 Cl  0  0  0  0  0  0  0  0  0  0  0  0
  1  2  1  0
  1  3  1  0
  2 38  2  0
  3  4  2  0
  4  5  1  0
  4  6  1  0
  5 38  1  0
  5 39  2  0
  6  7  2  0
  7  8  1  0
  7 33  1  0
  8  9  1  0
  8 39  1  0
  9 10  2  0
  9 12  1  0
 10 13  1  0
 11 33  1  0
 12 14  2  0
 13 15  2  0
 14 15  1  0
 14 40  1  0
 15 41  1  0
 16 22  1  0
 16 34  2  0
 16 40  1  0
 17 18  2  0
 17 19  1  0
 18 20  1  0
 19 23  2  0
 19 41  1  0
 20 24  2  0
 21 22  2  0
 21 26  1  0
 22 25  1  0
 23 24  1  0
 25 30  2  0
 26 29  2  0
 26 43  1  0
 27 28  1  0
 28 32  1  0
 28 36  1  0
 29 30  1  0
 30 31  1  0
 35 42  1  0
 36 42  1  0
 37 42  1  0
 41 42  1  0
M  END
$$$$

     RDKit          3D

 45 50  0  0  0  0  0  0  0  0999 V2000
  -31.7875    1.6286  -37.5659 C   0  0  0  0  0  0  0  0  0  0  0  0
  -31.6483    2.0763  -35.3903 C   0  0  0  0  0  0  0  0  0  0  0  0
  -30.7406    0.8947  -37.0574 C   0  0  0  0  0  0  0  0  0  0  0  0
  -29.8712    0.4567  -34.7509 C   0  0  0  0  0  0  0  0  0  0  0  0
  -29.6507   -0.9079  -34.4804 C   0  0  0  0  0  0  0  0  0  0  0  0
  -29.0449    1.3934  -34.1105 C   0  0  0  0  0  0  0  0  0  0  0  0
  -28.5433   -1.2872  -33.6407 C   0  0  0  0  0  0  0  0  0  0  0  0
  -28.0488    1.0181  -33.2818 C   0  0  0  0  0  0  0  0  0  0  0  0
  -27.7443   -0.2807  -33.0776 C   0  0  0  0  0  0  0  0  0  0  0  0
  -25.2396    2.3242  -34.8249 C   0  0  0  0  0  0  0  0  0  0  0  0
  -24.2119    0.7552  -32.5021 C   0  0  0  0  0  0  0  0  0  0  0  0
  -24.1275    5.7422  -35.2355 C   0  0  0  0  0  0  0  0  0  0  0  0
  -23.9037    0.1095  -31.2711 C   0  0  0  0  0  0  0  0  0  0  0  0
  -23.8873    2.5377  -34.3104 C   0  0  0  0  0  0  0  0  0  0  0  0
  -23.3526    1.6892  -33.2957 C   0  0  0  0  0  0  0  0  0  0  0  0
  -23.0185    3.5343  -34.8728 C   0  0  0  0  0  0  0  0  0  0  0  0
  -23.0618    4.7213  -37.1679 C   0  0  0  0  0  0  0  0  0  0  0  0
  -22.5588    4.7826  -26.7707 C   0  0  0  0  0  0  0  0  0  0  0  0
  -22.6315    5.5244  -27.9047 C   0  0  0  0  0  0  0  0  0  0  0  0
  -22.0040    3.5247  -26.7416 C   0  0  0  0  0  0  0  0  0  0  0  0
  -22.1455    5.0409  -29.0879 C   0  0  0  0  0  0  0  0  0  0  0  0
  -21.4794    3.0241  -27.9183 C   0  0  0  0  0  0  0  0  0  0  0  0
  -21.6956    3.5468  -34.4580 C   0  0  0  0  0  0  0  0  0  0  0  0
  -21.5563    3.7716  -29.1145 C   0  0  0  0  0  0  0  0  0  0  0  0
  -21.2602    2.6432  -33.4995 C   0  0  0  0  0  0  0  0  0  0  0  0
  -20.2110    1.4185  -29.0860 C   0  0  0  0  0  0  0  0  0  0  0  0
  -20.2956    2.1685  -30.2731 C   0  0  0  0  0  0  0  0  0  0  0  0
  -19.6069    1.6730  -31.3921 C   0  0  0  0  0  0  0  0  0  0  0  0
  -19.4594    0.2069  -29.0631 C   0  0  0  0  0  0  0  0  0  0  0  0
  -18.7895   -0.2235  -30.1667 C   0  0  0  0  0  0  0  0  0  0  0  0
  -18.8693    0.5118  -31.3454 C   0  0  0  0  0  0  0  0  0  0  0  0
  -27.0865   -1.5215  -30.9377 O   0  0  0  0  0  0  0  0  0  0  0  0
  -22.9051    0.2934  -30.5103 O   0  0  0  0  0  0  0  0  0  0  0  0
  -19.2939    3.9614  -32.3428 O   0  0  0  0  0  0  0  0  0  0  0  0
  -18.8017    2.1382  -33.8426 O   0  0  0  0  0  0  0  0  0  0  0  0
  -32.3067    2.4421  -36.5576 N   0  0  0  0  0  0  0  0  0  0  0  0
  -30.8101    0.9839  -35.6451 N   0  0  0  0  0  0  0  0  0  0  0  0
  -25.3908    0.4050  -32.9289 N   0  0  0  0  0  0  0  0  0  0  0  0
  -24.8403   -0.6932  -30.8616 N   0  0  0  0  0  0  0  0  0  0  0  0
  -23.5584    4.5094  -35.8140 N   0  0  0  0  0  0  0  0  0  0  0  0
  -22.0816    1.7086  -32.9757 N   0  0  0  0  0  0  0  0  0  0  0  0
  -21.0173    3.3105  -30.2965 N   0  0  0  0  0  0  0  0  0  0  0  0
  -20.8763    1.7645  -27.9377 N   0  0  0  0  0  0  0  0  0  0  0  0
  -26.2932   -0.5781  -32.0332 S   0  0  0  0  0  0  0  0  0  0  0  0
  -19.6583    2.6585  -32.7948 S   0  0  0  0  0  0  0  0  0  0  0  0
  1  3  1  0
  1 36  1  0
  2 36  1  0
  2 37  1  0
  3 37  1  0
  4  5  2  0
  4  6  1  0
  4 37  1  0
  5  7  1  0
  6  8  2  0
  7  9  2  0
  8  9  1  0
  9 44  1  0
 10 14  1  0
 11 13  1  0
 11 15  1  0
 11 38  2  3
 12 40  1  0
 13 33  2  0
 13 39  1  0
 14 15  2  0
 14 16  1  0
 15 41  1  0
 16 23  2  0
 16 40  1  0
 17 40  1  0
 18 19  2  0
 18 20  1  0
 19 21  1  0
 20 22  2  0
 21 24  2  0
 22 24  1  0
 22 43  1  0
 23 25  1  0
 24 42  1  0
 25 41  2  0
 25 45  1  0
 26 27  1  0
 26 29  1  0
 26 43  2  0
 27 28  1  0
 27 42  2  0
 28 31  2  0
 28 45  1  0
 29 30  2  0
 30 31  1  0
 32 44  1  0
 34 45  1  0
 35 45  1  0
 38 44  1  0
M  END
$$$$

     RDKit          3D

 40 45  0  0  0  0  0  0  0  0999 V2000
  -29.9963   -0.6829  -34.9692 C   0  0  0  0  0  0  0  0  0  0  0  0
  -30.0393    2.1980  -37.2095 C   0  0  0  0  0  0  0  0  0  0  0  0
  -29.6981    0.5517  -35.5506 C   0  0  0  0  0  0  0  0  0  0  0  0
  -29.4598    5.1603  -32.3433 C   0  0  0  0  0  0  0  0  0  0  0  0
  -29.4080   -1.0592  -33.7694 C   0  0  0  0  0  0  0  0  0  0  0  0
  -29.1333    3.0603  -36.6130 C   0  0  0  0  0  0  0  0  0  0  0  0
  -29.1411    4.3483  -33.3739 C   0  0  0  0  0  0  0  0  0  0  0  0
  -28.7503    1.4126  -34.8844 C   0  0  0  0  0  0  0  0  0  0  0  0
  -28.4870   -0.2568  -33.1263 C   0  0  0  0  0  0  0  0  0  0  0  0
  -28.4637    2.6619  -35.4428 C   0  0  0  0  0  0  0  0  0  0  0  0
  -28.5212    5.9395  -31.7549 C   0  0  0  0  0  0  0  0  0  0  0  0
  -28.1531    0.9706  -33.6639 C   0  0  0  0  0  0  0  0  0  0  0  0
  -27.8222    4.2985  -33.8531 C   0  0  0  0  0  0  0  0  0  0  0  0
  -27.1975    5.9418  -32.1474 C   0  0  0  0  0  0  0  0  0  0  0  0
  -26.8408    5.1265  -33.2603 C   0  0  0  0  0  0  0  0  0  0  0  0
  -25.4253    5.1568  -33.7373 C   0  0  0  0  0  0  0  0  0  0  0  0
  -24.4627    4.0911  -30.3992 C   0  0  0  0  0  0  0  0  0  0  0  0
  -24.2077    6.9733  -32.6017 C   0  0  0  0  0  0  0  0  0  0  0  0
  -23.5293    3.7914  -31.4039 C   0  0  0  0  0  0  0  0  0  0  0  0
  -23.2854    4.7499  -32.5528 C   0  0  0  0  0  0  0  0  0  0  0  0
  -22.7606    7.1208  -32.3840 C   0  0  0  0  0  0  0  0  0  0  0  0
  -22.7024    1.6214  -30.8529 C   0  0  0  0  0  0  0  0  0  0  0  0
  -22.2057    5.7391  -32.0950 C   0  0  0  0  0  0  0  0  0  0  0  0
  -21.5003   -0.5934  -30.8336 C   0  0  0  0  0  0  0  0  0  0  0  0
  -21.4752    0.8128  -30.8696 C   0  0  0  0  0  0  0  0  0  0  0  0
  -20.9539   -3.7471  -30.8238 C   0  0  0  0  0  0  0  0  0  0  0  0
  -20.2515   -1.2728  -30.7768 C   0  0  0  0  0  0  0  0  0  0  0  0
  -20.2644    1.4945  -30.8419 C   0  0  0  0  0  0  0  0  0  0  0  0
  -19.9497   -2.6535  -30.7357 C   0  0  0  0  0  0  0  0  0  0  0  0
  -19.0274   -0.5646  -30.7256 C   0  0  0  0  0  0  0  0  0  0  0  0
  -19.0705    0.8557  -30.8002 C   0  0  0  0  0  0  0  0  0  0  0  0
  -25.0999    5.0866  -34.9509 O   0  0  0  0  0  0  0  0  0  0  0  0
  -23.6948    1.2133  -30.3735 O   0  0  0  0  0  0  0  0  0  0  0  0
  -20.3740   -4.9259  -30.4037 O   0  0  0  0  0  0  0  0  0  0  0  0
  -30.3026    0.9490  -36.7050 N   0  0  0  0  0  0  0  0  0  0  0  0
  -27.4800    3.4513  -34.8798 N   0  0  0  0  0  0  0  0  0  0  0  0
  -24.4609    5.5567  -32.8340 N   0  0  0  0  0  0  0  0  0  0  0  0
  -22.5927    2.8404  -31.3467 N   0  0  0  0  0  0  0  0  0  0  0  0
  -18.6091   -2.7263  -30.6127 N   0  0  0  0  0  0  0  0  0  0  0  0
  -18.0089   -1.4923  -30.6185 N   0  0  0  0  0  0  0  0  0  0  0  0
  1  3  1  0
  1  5  1  0
  2  6  2  0
  2 35  1  0
  3  8  1  0
  3 35  2  0
  4  7  2  0
  4 11  1  0
  5  9  2  0
  6 10  1  0
  7 13  1  0
  8 10  1  0
  8 12  2  0
  9 12  1  0
 10 36  1  0
 11 14  2  0
 13 15  2  0
 13 36  1  0
 14 15  1  0
 15 16  1  0
 16 32  2  0
 16 37  1  0
 17 19  1  0
 18 21  1  0
 18 37  1  0
 19 20  1  0
 19 38  1  0
 20 23  1  0
 20 37  1  0
 21 23  1  0
 22 25  1  0
 22 33  2  0
 22 38  1  0
 24 25  2  0
 24 27  1  0
 25 28  1  0
 26 29  1  0
 26 34  1  0
 27 29  2  0
 27 30  1  0
 28 31  2  0
 29 39  1  0
 30 31  1  0
 30 40  1  0
 39 40  1  0
M  END
$$$$

     RDKit          3D

 48 55  0  0  0  0  0  0  0  0999 V2000
  -32.7407    2.4941  -34.7353 C   0  0  0  0  0  0  0  0  0  0  0  0
  -31.3537    4.2334  -33.6140 C   0  0  0  0  0  0  0  0  0  0  0  0
  -30.8981    0.3560  -33.6717 C   0  0  0  0  0  0  0  0  0  0  0  0
  -30.5418    1.7985  -33.7022 C   0  0  0  0  0  0  0  0  0  0  0  0
  -29.7297   -0.6214  -33.4494 C   0  0  0  0  0  0  0  0  0  0  0  0
  -29.1772    2.2571  -33.4425 C   0  0  0  0  0  0  0  0  0  0  0  0
  -27.3152   -0.7078  -32.6667 C   0  0  0  0  0  0  0  0  0  0  0  0
  -26.9051    1.4498  -32.8609 C   0  0  0  0  0  0  0  0  0  0  0  0
  -26.0167    2.5584  -32.3638 C   0  0  0  0  0  0  0  0  0  0  0  0
  -25.0617    0.0800  -31.8390 C   0  0  0  0  0  0  0  0  0  0  0  0
  -25.0578    3.0442  -30.2084 C   0  0  0  0  0  0  0  0  0  0  0  0
  -24.7282    2.5795  -31.6238 C   0  0  0  0  0  0  0  0  0  0  0  0
  -24.6435   -1.2160  -31.4959 C   0  0  0  0  0  0  0  0  0  0  0  0
  -24.1721    1.1736  -31.5290 C   0  0  0  0  0  0  0  0  0  0  0  0
  -23.5714    1.9053  -36.2896 C   0  0  0  0  0  0  0  0  0  0  0  0
  -23.6987    2.3723  -34.9449 C   0  0  0  0  0  0  0  0  0  0  0  0
  -23.3811   -1.3972  -30.9179 C   0  0  0  0  0  0  0  0  0  0  0  0
  -22.8208    5.4760  -27.0435 C   0  0  0  0  0  0  0  0  0  0  0  0
  -22.9260    5.9624  -29.4773 C   0  0  0  0  0  0  0  0  0  0  0  0
  -22.5190   -0.3123  -30.7408 C   0  0  0  0  0  0  0  0  0  0  0  0
  -22.5322    2.7015  -34.1737 C   0  0  0  0  0  0  0  0  0  0  0  0
  -22.6607    3.2879  -32.8699 C   0  0  0  0  0  0  0  0  0  0  0  0
  -22.4641    5.1332  -28.3480 C   0  0  0  0  0  0  0  0  0  0  0  0
  -22.3051    1.8881  -36.8868 C   0  0  0  0  0  0  0  0  0  0  0  0
  -22.4428    4.6853  -25.9672 C   0  0  0  0  0  0  0  0  0  0  0  0
  -22.4036    5.5294  -30.7439 C   0  0  0  0  0  0  0  0  0  0  0  0
  -21.4987    3.5291  -32.1063 C   0  0  0  0  0  0  0  0  0  0  0  0
  -21.6739    3.5335  -26.1464 C   0  0  0  0  0  0  0  0  0  0  0  0
  -21.6180    3.9556  -28.5444 C   0  0  0  0  0  0  0  0  0  0  0  0
  -21.6272    4.2932  -30.8610 C   0  0  0  0  0  0  0  0  0  0  0  0
  -21.2833    2.4176  -34.7025 C   0  0  0  0  0  0  0  0  0  0  0  0
  -21.2803    3.2052  -27.4259 C   0  0  0  0  0  0  0  0  0  0  0  0
  -21.1694    2.0010  -36.0664 C   0  0  0  0  0  0  0  0  0  0  0  0
  -20.2590    3.0746  -32.5669 C   0  0  0  0  0  0  0  0  0  0  0  0
  -20.1608    2.5096  -33.8431 C   0  0  0  0  0  0  0  0  0  0  0  0
  -32.7155    1.8608  -35.7165 O   0  0  0  0  0  0  0  0  0  0  0  0
  -26.7942    3.4792  -32.3830 O   0  0  0  0  0  0  0  0  0  0  0  0
  -19.1604    3.1911  -31.8839 O   0  0  0  0  0  0  0  0  0  0  0  0
  -31.5203    2.8221  -34.0272 N   0  0  0  0  0  0  0  0  0  0  0  0
  -28.4422   -0.0103  -33.1735 N   0  0  0  0  0  0  0  0  0  0  0  0
  -28.1718    1.3017  -33.6382 N   0  0  0  0  0  0  0  0  0  0  0  0
  -26.3179    0.2007  -32.3546 N   0  0  0  0  0  0  0  0  0  0  0  0
  -23.9666    3.5402  -32.3847 N   0  0  0  0  0  0  0  0  0  0  0  0
  -22.9293    0.9393  -31.0451 N   0  0  0  0  0  0  0  0  0  0  0  0
  -21.2607    3.5375  -29.7901 N   0  0  0  0  0  0  0  0  0  0  0  0
  -22.2453    1.9628  -38.5993 Cl  0  0  0  0  0  0  0  0  0  0  0  0
  -21.3462    2.5524  -24.6579 Cl  0  0  0  0  0  0  0  0  0  0  0  0
  -18.5661    2.1877  -34.5042 Cl  0  0  0  0  0  0  0  0  0  0  0  0
  1 36  2  0
  1 39  1  0
  2 39  1  0
  3  4  1  0
  3  5  2  0
  4  6  1  0
  4 39  1  0
  5 40  1  0
  6 41  1  0
  7 40  1  0
  7 42  1  0
  8  9  1  0
  8 41  1  0
  8 42  1  0
  9 12  1  0
  9 37  2  0
 10 13  1  0
 10 14  2  0
 10 42  1  0
 11 12  1  0
 12 14  1  0
 12 43  1  0
 13 17  2  0
 14 44  1  0
 15 16  2  0
 15 24  1  0
 16 21  1  0
 17 20  1  0
 18 23  2  0
 18 25  1  0
 19 23  1  0
 19 26  1  0
 20 44  2  0
 21 22  1  0
 21 31  2  0
 22 27  2  0
 22 43  1  0
 23 29  1  0
 24 33  1  0
 24 46  1  0
 25 28  2  0
 26 30  1  0
 27 30  1  0
 27 34  1  0
 28 32  1  0
 28 47  1  0
 29 32  2  0
 29 45  1  0
 30 45  2  0
 31 33  1  0
 31 35  1  0
 34 35  2  0
 34 38  1  0
 35 48  1  0
 40 41  1  0
M  END
$$$$

     RDKit          3D

 34 37  0  0  0  0  0  0  0  0999 V2000
  -31.0205    1.9885  -34.1885 C   0  0  0  0  0  0  0  0  0  0  0  0
  -30.2156    3.1253  -33.4502 C   0  0  0  0  0  0  0  0  0  0  0  0
  -28.2554    1.7227  -33.6216 C   0  0  0  0  0  0  0  0  0  0  0  0
  -27.9280    4.1510  -33.5135 C   0  0  0  0  0  0  0  0  0  0  0  0
  -27.4074    4.3714  -32.0911 C   0  0  0  0  0  0  0  0  0  0  0  0
  -25.6107    2.9867  -31.1011 C   0  0  0  0  0  0  0  0  0  0  0  0
  -25.1462    5.2077  -31.4568 C   0  0  0  0  0  0  0  0  0  0  0  0
  -24.3005    2.5242  -31.6473 C   0  0  0  0  0  0  0  0  0  0  0  0
  -24.2207    5.8687  -33.6734 C   0  0  0  0  0  0  0  0  0  0  0  0
  -23.7149    3.5542  -32.7017 C   0  0  0  0  0  0  0  0  0  0  0  0
  -23.9220    5.0645  -32.3550 C   0  0  0  0  0  0  0  0  0  0  0  0
  -23.3634    1.9773  -30.5802 C   0  0  0  0  0  0  0  0  0  0  0  0
  -22.4566    1.9556  -34.2001 C   0  0  0  0  0  0  0  0  0  0  0  0
  -22.3129    3.1414  -33.1449 C   0  0  0  0  0  0  0  0  0  0  0  0
  -22.0507    1.5406  -31.1506 C   0  0  0  0  0  0  0  0  0  0  0  0
  -22.1204    2.1126  -35.6995 C   0  0  0  0  0  0  0  0  0  0  0  0
  -21.4125    0.1629  -29.0584 C   0  0  0  0  0  0  0  0  0  0  0  0
  -21.4214    2.6891  -31.9648 C   0  0  0  0  0  0  0  0  0  0  0  0
  -21.0512    0.8603  -30.2726 C   0  0  0  0  0  0  0  0  0  0  0  0
  -21.0030    3.8906  -31.0365 C   0  0  0  0  0  0  0  0  0  0  0  0
  -20.4930   -0.8103  -28.3667 C   0  0  0  0  0  0  0  0  0  0  0  0
  -19.8151    0.4827  -30.8682 C   0  0  0  0  0  0  0  0  0  0  0  0
  -19.2081   -1.2374  -28.9611 C   0  0  0  0  0  0  0  0  0  0  0  0
  -19.2219    1.5325  -31.7685 C   0  0  0  0  0  0  0  0  0  0  0  0
  -18.8841   -0.3935  -30.1510 C   0  0  0  0  0  0  0  0  0  0  0  0
  -18.1993   -1.2591  -27.8256 C   0  0  0  0  0  0  0  0  0  0  0  0
  -30.7499    1.9754  -35.5164 O   0  0  0  0  0  0  0  0  0  0  0  0
  -28.1732    4.9351  -31.2738 O   0  0  0  0  0  0  0  0  0  0  0  0
  -25.1586    6.6735  -33.8179 O   0  0  0  0  0  0  0  0  0  0  0  0
  -20.8953    1.8266  -36.0357 O   0  0  0  0  0  0  0  0  0  0  0  0
  -20.1796    2.2777  -32.5006 O   0  0  0  0  0  0  0  0  0  0  0  0
  -19.3450   -2.4283  -29.4746 O   0  0  0  0  0  0  0  0  0  0  0  0
  -28.8254    3.0203  -33.6235 N   0  0  0  0  0  0  0  0  0  0  0  0
  -26.1024    4.1934  -31.6746 N   0  0  0  0  0  0  0  0  0  0  0  0
  1  2  1  0
  1 27  1  0
  2 33  1  0
  3 33  1  0
  4  5  1  0
  4 33  1  0
  5 28  2  0
  5 34  1  0
  6  8  1  0
  6 34  1  0
  7 11  1  0
  7 34  1  0
  8 10  1  0
  8 12  1  0
  9 11  1  0
  9 29  2  0
 10 11  1  0
 10 14  1  0
 12 15  1  0
 13 14  1  0
 13 16  1  0
 14 18  1  0
 15 18  1  0
 15 19  1  0
 16 30  1  0
 17 19  2  0
 17 21  1  0
 18 20  1  0
 18 31  1  0
 19 22  1  0
 21 23  1  0
 22 24  1  0
 22 25  1  0
 23 25  1  0
 23 26  1  0
 23 32  1  0
 24 31  1  0
M  END
$$$$

     RDKit          3D

 48 53  0  0  0  0  0  0  0  0999 V2000
  -31.6048   -1.2833  -36.6317 C   0  0  0  0  0  0  0  0  0  0  0  0
  -31.1945   -2.5852  -36.2332 C   0  0  0  0  0  0  0  0  0  0  0  0
  -30.2034   -2.6775  -35.2311 C   0  0  0  0  0  0  0  0  0  0  0  0
  -30.0543   -0.3292  -35.1714 C   0  0  0  0  0  0  0  0  0  0  0  0
  -29.3399    0.9281  -34.6593 C   0  0  0  0  0  0  0  0  0  0  0  0
  -28.9803    3.3977  -35.9360 C   0  0  0  0  0  0  0  0  0  0  0  0
  -28.7152   -1.5799  -33.4922 C   0  0  0  0  0  0  0  0  0  0  0  0
  -27.0143    3.6512  -34.7474 C   0  0  0  0  0  0  0  0  0  0  0  0
  -26.6571   -0.3956  -31.7156 C   0  0  0  0  0  0  0  0  0  0  0  0
  -26.4143   -0.9463  -32.9886 C   0  0  0  0  0  0  0  0  0  0  0  0
  -26.1809    4.1289  -33.4982 C   0  0  0  0  0  0  0  0  0  0  0  0
  -25.9175    0.7134  -31.2648 C   0  0  0  0  0  0  0  0  0  0  0  0
  -25.3097   -0.4646  -33.7079 C   0  0  0  0  0  0  0  0  0  0  0  0
  -25.2907    3.6453  -36.9426 C   0  0  0  0  0  0  0  0  0  0  0  0
  -24.9252    1.2674  -32.0895 C   0  0  0  0  0  0  0  0  0  0  0  0
  -24.6088    0.6520  -33.2853 C   0  0  0  0  0  0  0  0  0  0  0  0
  -24.5156    5.4033  -35.9751 C   0  0  0  0  0  0  0  0  0  0  0  0
  -24.2491    2.5491  -31.6430 C   0  0  0  0  0  0  0  0  0  0  0  0
  -24.2013    3.9396  -37.9436 C   0  0  0  0  0  0  0  0  0  0  0  0
  -24.0190    4.6911  -34.6961 C   0  0  0  0  0  0  0  0  0  0  0  0
  -23.8108    3.4637  -32.8366 C   0  0  0  0  0  0  0  0  0  0  0  0
  -23.6841    5.2390  -37.2897 C   0  0  0  0  0  0  0  0  0  0  0  0
  -22.9958    2.9331  -29.5674 C   0  0  0  0  0  0  0  0  0  0  0  0
  -22.5126    3.8137  -33.3443 C   0  0  0  0  0  0  0  0  0  0  0  0
  -22.1894    2.2232  -28.5716 C   0  0  0  0  0  0  0  0  0  0  0  0
  -21.7107    1.0052  -28.9592 C   0  0  0  0  0  0  0  0  0  0  0  0
  -21.1905    2.0452  -26.4058 C   0  0  0  0  0  0  0  0  0  0  0  0
  -21.1443    3.4943  -32.9319 C   0  0  0  0  0  0  0  0  0  0  0  0
  -20.9343    0.2621  -28.0651 C   0  0  0  0  0  0  0  0  0  0  0  0
  -20.6778    0.7485  -26.7590 C   0  0  0  0  0  0  0  0  0  0  0  0
  -20.6750    3.7706  -31.6451 C   0  0  0  0  0  0  0  0  0  0  0  0
  -20.4568   -1.0238  -28.3864 C   0  0  0  0  0  0  0  0  0  0  0  0
  -20.2898    2.9424  -33.8593 C   0  0  0  0  0  0  0  0  0  0  0  0
  -19.7715   -1.7572  -27.4806 C   0  0  0  0  0  0  0  0  0  0  0  0
  -19.5330   -1.2613  -26.2422 C   0  0  0  0  0  0  0  0  0  0  0  0
  -19.4065    3.4053  -31.2487 C   0  0  0  0  0  0  0  0  0  0  0  0
  -18.9724    2.6145  -33.4981 C   0  0  0  0  0  0  0  0  0  0  0  0
  -18.5421    2.8228  -32.1822 C   0  0  0  0  0  0  0  0  0  0  0  0
  -28.3932    3.8617  -34.6502 O   0  0  0  0  0  0  0  0  0  0  0  0
  -27.2832   -1.8231  -33.6809 O   0  0  0  0  0  0  0  0  0  0  0  0
  -23.2316    4.1141  -29.4305 O   0  0  0  0  0  0  0  0  0  0  0  0
  -30.9993   -0.2080  -36.1050 N   0  0  0  0  0  0  0  0  0  0  0  0
  -29.6265   -1.5459  -34.6819 N   0  0  0  0  0  0  0  0  0  0  0  0
  -24.6983    4.1077  -33.6594 N   0  0  0  0  0  0  0  0  0  0  0  0
  -23.2623    2.2063  -30.6510 N   0  0  0  0  0  0  0  0  0  0  0  0
  -22.7001    4.5159  -34.4941 N   0  0  0  0  0  0  0  0  0  0  0  0
  -21.9128    2.7633  -27.3123 N   0  0  0  0  0  0  0  0  0  0  0  0
  -19.9551   -0.0287  -25.8745 N   0  0  0  0  0  0  0  0  0  0  0  0
  1  2  2  0
  1 42  1  0
  2  3  1  0
  3 43  1  0
  4  5  1  0
  4 42  2  0
  4 43  1  0
  6 39  1  0
  7 40  1  0
  7 43  1  0
  8 11  1  0
  8 39  1  0
  9 10  2  0
  9 12  1  0
 10 13  1  0
 10 40  1  0
 11 44  1  0
 12 15  2  0
 13 16  2  0
 14 19  1  0
 15 16  1  0
 15 18  1  0
 17 20  1  0
 17 22  1  0
 18 21  1  0
 18 45  1  0
 19 22  1  0
 20 44  1  0
 20 46  2  0
 21 24  2  0
 21 44  1  0
 23 25  1  0
 23 41  2  0
 23 45  1  0
 24 28  1  0
 24 46  1  0
 25 26  2  0
 25 47  1  0
 26 29  1  0
 27 30  1  0
 27 47  2  0
 28 31  2  0
 28 33  1  0
 29 30  2  0
 29 32  1  0
 30 48  1  0
 31 36  1  0
 32 34  2  0
 33 37  2  0
 34 35  1  0
 35 48  2  0
 36 38  2  0
 37 38  1  0
M  END
$$$$

     RDKit          3D

 41 46  0  0  0  0  0  0  0  0999 V2000
  -32.2501   -1.3649  -36.0424 C   0  0  0  0  0  0  0  0  0  0  0  0
  -31.5072    0.4317  -34.5373 C   0  0  0  0  0  0  0  0  0  0  0  0
  -30.7547   -1.5765  -36.3741 C   0  0  0  0  0  0  0  0  0  0  0  0
  -30.4279   -0.4989  -34.1876 C   0  0  0  0  0  0  0  0  0  0  0  0
  -28.4843   -1.1244  -32.8916 C   0  0  0  0  0  0  0  0  0  0  0  0
  -27.0310   -0.6801  -32.7118 C   0  0  0  0  0  0  0  0  0  0  0  0
  -26.4273   -0.8690  -31.4558 C   0  0  0  0  0  0  0  0  0  0  0  0
  -26.2220   -0.1125  -33.7283 C   0  0  0  0  0  0  0  0  0  0  0  0
  -25.4852    2.8249  -30.6086 C   0  0  0  0  0  0  0  0  0  0  0  0
  -25.1571   -0.4047  -31.1532 C   0  0  0  0  0  0  0  0  0  0  0  0
  -24.9148    0.3388  -33.4352 C   0  0  0  0  0  0  0  0  0  0  0  0
  -24.7078    4.3136  -32.0373 C   0  0  0  0  0  0  0  0  0  0  0  0
  -24.3837    0.2368  -32.1284 C   0  0  0  0  0  0  0  0  0  0  0  0
  -24.2967    3.0999  -31.3897 C   0  0  0  0  0  0  0  0  0  0  0  0
  -23.8773    5.1830  -32.8803 C   0  0  0  0  0  0  0  0  0  0  0  0
  -23.7721    6.5689  -32.5735 C   0  0  0  0  0  0  0  0  0  0  0  0
  -23.2156    4.6714  -34.0017 C   0  0  0  0  0  0  0  0  0  0  0  0
  -23.0330    0.8936  -31.6816 C   0  0  0  0  0  0  0  0  0  0  0  0
  -22.9934    2.3167  -31.3927 C   0  0  0  0  0  0  0  0  0  0  0  0
  -22.4465    5.5359  -34.8084 C   0  0  0  0  0  0  0  0  0  0  0  0
  -22.3663    6.9036  -34.4836 C   0  0  0  0  0  0  0  0  0  0  0  0
  -21.7241    2.9990  -31.3241 C   0  0  0  0  0  0  0  0  0  0  0  0
  -21.7467    5.0487  -36.0318 C   0  0  0  0  0  0  0  0  0  0  0  0
  -21.6320   -1.2658  -31.2000 C   0  0  0  0  0  0  0  0  0  0  0  0
  -21.6897    0.1441  -31.3069 C   0  0  0  0  0  0  0  0  0  0  0  0
  -21.5836    7.7550  -35.3243 C   0  0  0  0  0  0  0  0  0  0  0  0
  -20.4596   -3.3982  -30.6989 C   0  0  0  0  0  0  0  0  0  0  0  0
  -20.4730    0.8474  -31.0887 C   0  0  0  0  0  0  0  0  0  0  0  0
  -20.4886    2.2976  -31.0989 C   0  0  0  0  0  0  0  0  0  0  0  0
  -20.4160   -1.9231  -30.8743 C   0  0  0  0  0  0  0  0  0  0  0  0
  -19.2086   -1.2179  -30.7480 C   0  0  0  0  0  0  0  0  0  0  0  0
  -19.2453    0.1481  -30.8508 C   0  0  0  0  0  0  0  0  0  0  0  0
  -29.4250   -0.1150  -33.2938 O   0  0  0  0  0  0  0  0  0  0  0  0
  -21.5853   -3.9068  -30.5369 O   0  0  0  0  0  0  0  0  0  0  0  0
  -21.6324    4.2849  -31.3831 O   0  0  0  0  0  0  0  0  0  0  0  0
  -32.3803   -0.0325  -35.5962 N   0  0  0  0  0  0  0  0  0  0  0  0
  -29.9791   -1.4127  -35.1799 N   0  0  0  0  0  0  0  0  0  0  0  0
  -26.4509    3.7096  -30.8670 N   0  0  0  0  0  0  0  0  0  0  0  0
  -25.9560    4.6379  -31.7074 N   0  0  0  0  0  0  0  0  0  0  0  0
  -23.0301    7.3760  -33.3858 N   0  0  0  0  0  0  0  0  0  0  0  0
  -19.2972   -4.1062  -30.6997 N   0  0  0  0  0  0  0  0  0  0  0  0
  1  3  1  0
  1 36  1  0
  2  4  1  0
  2 36  1  0
  3 37  1  0
  4 33  1  0
  4 37  2  0
  5  6  1  0
  5 33  1  0
  6  7  2  0
  6  8  1  0
  7 10  1  0
  8 11  2  0
  9 14  1  0
  9 38  1  0
 10 13  2  0
 11 13  1  0
 12 14  2  0
 12 15  1  0
 12 39  1  0
 13 18  1  0
 14 19  1  0
 15 16  2  0
 15 17  1  0
 16 40  1  0
 17 20  2  0
 18 19  1  0
 18 25  1  0
 19 22  1  0
 20 21  1  0
 20 23  1  0
 21 26  1  0
 21 40  2  0
 22 29  2  0
 22 35  1  0
 24 25  1  0
 24 30  2  0
 25 28  2  0
 27 30  1  0
 27 34  2  0
 27 41  1  0
 28 29  1  0
 28 32  1  0
 30 31  1  0
 31 32  2  0
 38 39  1  0
M  END
$$$$

     RDKit          3D

 42 47  0  0  0  0  0  0  0  0999 V2000
  -30.6954    1.4302  -34.3565 C   0  0  0  0  0  0  0  0  0  0  0  0
  -30.4220    2.4396  -35.2499 C   0  0  0  0  0  0  0  0  0  0  0  0
  -29.6627    0.7942  -33.6616 C   0  0  0  0  0  0  0  0  0  0  0  0
  -29.1312    2.8863  -35.4594 C   0  0  0  0  0  0  0  0  0  0  0  0
  -28.9248    3.9772  -36.3960 C   0  0  0  0  0  0  0  0  0  0  0  0
  -28.3317    1.1884  -33.9042 C   0  0  0  0  0  0  0  0  0  0  0  0
  -28.0255    2.2540  -34.7932 C   0  0  0  0  0  0  0  0  0  0  0  0
  -26.0141    0.8805  -33.4877 C   0  0  0  0  0  0  0  0  0  0  0  0
  -25.7174    1.9101  -34.3801 C   0  0  0  0  0  0  0  0  0  0  0  0
  -25.2545    3.8717  -30.7579 C   0  0  0  0  0  0  0  0  0  0  0  0
  -24.9807   -0.4833  -31.7496 C   0  0  0  0  0  0  0  0  0  0  0  0
  -24.2850    2.1656  -34.6917 C   0  0  0  0  0  0  0  0  0  0  0  0
  -24.2928    3.9646  -32.9877 C   0  0  0  0  0  0  0  0  0  0  0  0
  -23.8182   -1.3893  -31.6459 C   0  0  0  0  0  0  0  0  0  0  0  0
  -23.6616    1.4694  -35.7223 C   0  0  0  0  0  0  0  0  0  0  0  0
  -23.5492    3.1335  -33.9407 C   0  0  0  0  0  0  0  0  0  0  0  0
  -22.9637    3.0874  -31.0706 C   0  0  0  0  0  0  0  0  0  0  0  0
  -22.4275    0.2525  -30.7019 C   0  0  0  0  0  0  0  0  0  0  0  0
  -22.3021    1.6697  -35.9479 C   0  0  0  0  0  0  0  0  0  0  0  0
  -22.2463    2.0344  -28.9655 C   0  0  0  0  0  0  0  0  0  0  0  0
  -21.9631    0.7379  -29.3595 C   0  0  0  0  0  0  0  0  0  0  0  0
  -22.1927    3.1991  -34.1119 C   0  0  0  0  0  0  0  0  0  0  0  0
  -22.0682    3.8259  -27.2988 C   0  0  0  0  0  0  0  0  0  0  0  0
  -21.8438    2.5042  -27.7131 C   0  0  0  0  0  0  0  0  0  0  0  0
  -21.5616    2.4792  -35.1164 C   0  0  0  0  0  0  0  0  0  0  0  0
  -21.6592    4.2717  -26.0613 C   0  0  0  0  0  0  0  0  0  0  0  0
  -21.2962   -0.0985  -28.5260 C   0  0  0  0  0  0  0  0  0  0  0  0
  -21.1645    1.6564  -26.8370 C   0  0  0  0  0  0  0  0  0  0  0  0
  -21.0023    3.4076  -25.1807 C   0  0  0  0  0  0  0  0  0  0  0  0
  -20.8992    0.3289  -27.2539 C   0  0  0  0  0  0  0  0  0  0  0  0
  -20.7471    2.1042  -25.5636 C   0  0  0  0  0  0  0  0  0  0  0  0
  -29.9486    4.6546  -36.7434 O   0  0  0  0  0  0  0  0  0  0  0  0
  -27.7698    4.2302  -36.8384 O   0  0  0  0  0  0  0  0  0  0  0  0
  -25.7589   -0.3394  -30.8405 O   0  0  0  0  0  0  0  0  0  0  0  0
  -25.0730    4.8101  -33.3842 O   0  0  0  0  0  0  0  0  0  0  0  0
  -23.0469   -0.9271  -30.5631 O   0  0  0  0  0  0  0  0  0  0  0  0
  -22.1475    0.7636  -31.7699 O   0  0  0  0  0  0  0  0  0  0  0  0
  -27.3274    0.5705  -33.2300 N   0  0  0  0  0  0  0  0  0  0  0  0
  -26.7040    2.5728  -34.9903 N   0  0  0  0  0  0  0  0  0  0  0  0
  -25.0027    0.2348  -32.8599 N   0  0  0  0  0  0  0  0  0  0  0  0
  -24.1579    3.5591  -31.6355 N   0  0  0  0  0  0  0  0  0  0  0  0
  -23.0206    2.8865  -29.7579 N   0  0  0  0  0  0  0  0  0  0  0  0
  1  2  2  0
  1  3  1  0
  2  4  1  0
  3  6  2  0
  4  5  1  0
  4  7  2  0
  5 32  2  0
  5 33  1  0
  6  7  1  0
  6 38  1  0
  7 39  1  0
  8  9  1  0
  8 38  2  0
  8 40  1  0
  9 12  1  0
  9 39  2  0
 10 41  1  0
 11 14  1  0
 11 34  2  0
 11 40  1  0
 12 15  2  0
 12 16  1  0
 13 16  1  0
 13 35  2  0
 13 41  1  0
 14 36  1  0
 15 19  1  0
 16 22  2  0
 17 41  1  0
 17 42  1  0
 18 21  1  0
 18 36  1  0
 18 37  2  0
 19 25  2  0
 20 21  2  0
 20 24  1  0
 20 42  1  0
 21 27  1  0
 22 25  1  0
 23 24  2  0
 23 26  1  0
 24 28  1  0
 26 29  2  0
 27 30  2  0
 28 30  1  0
 28 31  2  0
 29 31  1  0
M  END
$$$$

     RDKit          3D

 42 47  0  0  0  0  0  0  0  0999 V2000
  -30.7318    4.1857  -37.7936 C   0  0  0  0  0  0  0  0  0  0  0  0
  -30.3206   -0.3587  -34.7151 C   0  0  0  0  0  0  0  0  0  0  0  0
  -30.2685    0.7086  -35.5955 C   0  0  0  0  0  0  0  0  0  0  0  0
  -30.3150    3.8630  -36.3566 C   0  0  0  0  0  0  0  0  0  0  0  0
  -29.6533    4.7939  -38.5743 C   0  0  0  0  0  0  0  0  0  0  0  0
  -29.4364   -0.4331  -33.6300 C   0  0  0  0  0  0  0  0  0  0  0  0
  -29.2828    1.6982  -35.4970 C   0  0  0  0  0  0  0  0  0  0  0  0
  -28.5467    2.7148  -37.6572 C   0  0  0  0  0  0  0  0  0  0  0  0
  -28.4378    0.5354  -33.5166 C   0  0  0  0  0  0  0  0  0  0  0  0
  -28.3615    1.6094  -34.4175 C   0  0  0  0  0  0  0  0  0  0  0  0
  -28.3965    3.9581  -38.5122 C   0  0  0  0  0  0  0  0  0  0  0  0
  -25.9817    2.4954  -34.4371 C   0  0  0  0  0  0  0  0  0  0  0  0
  -25.2548    0.7428  -30.7707 C   0  0  0  0  0  0  0  0  0  0  0  0
  -25.3480    1.4065  -35.0322 C   0  0  0  0  0  0  0  0  0  0  0  0
  -25.2210    3.5955  -33.9952 C   0  0  0  0  0  0  0  0  0  0  0  0
  -25.0872   -0.5512  -31.2656 C   0  0  0  0  0  0  0  0  0  0  0  0
  -24.2310    1.6885  -30.8859 C   0  0  0  0  0  0  0  0  0  0  0  0
  -23.8146   -0.8778  -31.8240 C   0  0  0  0  0  0  0  0  0  0  0  0
  -23.9405    1.4957  -35.2237 C   0  0  0  0  0  0  0  0  0  0  0  0
  -23.8654    3.6955  -34.1835 C   0  0  0  0  0  0  0  0  0  0  0  0
  -23.2161    2.6554  -34.8300 C   0  0  0  0  0  0  0  0  0  0  0  0
  -23.0001    1.3951  -31.4455 C   0  0  0  0  0  0  0  0  0  0  0  0
  -22.7929    0.1015  -31.9004 C   0  0  0  0  0  0  0  0  0  0  0  0
  -22.7227    4.8923  -28.7533 C   0  0  0  0  0  0  0  0  0  0  0  0
  -22.6877    4.9535  -27.3760 C   0  0  0  0  0  0  0  0  0  0  0  0
  -22.3342    3.6933  -30.8970 C   0  0  0  0  0  0  0  0  0  0  0  0
  -22.2368    3.7646  -29.4239 C   0  0  0  0  0  0  0  0  0  0  0  0
  -22.1433    3.9035  -26.6539 C   0  0  0  0  0  0  0  0  0  0  0  0
  -21.7105    2.7324  -34.9752 C   0  0  0  0  0  0  0  0  0  0  0  0
  -21.6728    2.7127  -28.7224 C   0  0  0  0  0  0  0  0  0  0  0  0
  -21.6327    2.7925  -27.3349 C   0  0  0  0  0  0  0  0  0  0  0  0
  -20.8646    2.4336  -32.3317 C   0  0  0  0  0  0  0  0  0  0  0  0
  -20.7508    2.5659  -33.7822 C   0  0  0  0  0  0  0  0  0  0  0  0
  -19.5591    2.6402  -31.9077 C   0  0  0  0  0  0  0  0  0  0  0  0
  -18.7078    2.6704  -33.0009 C   0  0  0  0  0  0  0  0  0  0  0  0
  -26.0936   -1.4383  -31.1422 O   0  0  0  0  0  0  0  0  0  0  0  0
  -22.4550    4.6936  -31.5895 O   0  0  0  0  0  0  0  0  0  0  0  0
  -19.4586    2.6423  -34.1180 O   0  0  0  0  0  0  0  0  0  0  0  0
  -29.2421    2.8247  -36.3960 N   0  0  0  0  0  0  0  0  0  0  0  0
  -27.3331    2.5151  -34.2304 N   0  0  0  0  0  0  0  0  0  0  0  0
  -22.0322    2.4558  -31.5167 N   0  0  0  0  0  0  0  0  0  0  0  0
  -23.2549    0.5788  -36.0119 F   0  0  0  0  0  0  0  0  0  0  0  0
  1  4  1  0
  1  5  1  0
  2  3  2  0
  2  6  1  0
  3  7  1  0
  4 39  1  0
  5 11  1  0
  6  9  1  0
  7 10  1  0
  7 39  1  0
  8 11  1  0
  8 39  1  0
  9 10  2  0
 10 40  1  0
 12 14  1  0
 12 15  1  0
 12 40  2  3
 13 16  2  0
 13 17  1  0
 14 19  1  0
 15 20  2  0
 16 18  1  0
 16 36  1  0
 17 22  1  0
 18 23  1  0
 19 21  2  0
 19 42  1  0
 20 21  1  0
 21 29  1  0
 22 23  2  0
 22 41  1  0
 24 25  2  0
 24 27  1  0
 25 28  1  0
 26 27  1  0
 26 37  2  0
 26 41  1  0
 27 30  2  0
 28 31  2  0
 29 33  1  0
 30 31  1  0
 32 33  2  0
 32 34  1  0
 32 41  1  0
 33 38  1  0
 34 35  1  0
 35 38  1  0
M  END
$$$$

     RDKit          3D

 35 37  0  0  0  0  0  0  0  0999 V2000
  -32.0301    4.3134  -33.5485 C   0  0  0  0  0  0  0  0  0  0  0  0
  -31.8889    2.3264  -34.6671 C   0  0  0  0  0  0  0  0  0  0  0  0
  -30.7151    0.2012  -34.1333 C   0  0  0  0  0  0  0  0  0  0  0  0
  -30.7049    1.5642  -34.1691 C   0  0  0  0  0  0  0  0  0  0  0  0
  -29.5574    2.2529  -33.7780 C   0  0  0  0  0  0  0  0  0  0  0  0
  -28.4572    1.5974  -33.2494 C   0  0  0  0  0  0  0  0  0  0  0  0
  -28.4105    0.2408  -33.0733 C   0  0  0  0  0  0  0  0  0  0  0  0
  -27.3556   -0.4416  -32.2581 C   0  0  0  0  0  0  0  0  0  0  0  0
  -25.9129   -0.0574  -32.0365 C   0  0  0  0  0  0  0  0  0  0  0  0
  -25.2759    1.2269  -32.1487 C   0  0  0  0  0  0  0  0  0  0  0  0
  -25.1062   -1.1318  -31.5972 C   0  0  0  0  0  0  0  0  0  0  0  0
  -23.7292   -0.9785  -31.4954 C   0  0  0  0  0  0  0  0  0  0  0  0
  -23.8764    1.3825  -32.0090 C   0  0  0  0  0  0  0  0  0  0  0  0
  -23.1225    0.2549  -31.6519 C   0  0  0  0  0  0  0  0  0  0  0  0
  -23.0935    3.5566  -29.8977 C   0  0  0  0  0  0  0  0  0  0  0  0
  -22.8149    3.1001  -33.5432 C   0  0  0  0  0  0  0  0  0  0  0  0
  -22.7814    5.7653  -27.0404 C   0  0  0  0  0  0  0  0  0  0  0  0
  -22.4737    4.6175  -29.1899 C   0  0  0  0  0  0  0  0  0  0  0  0
  -22.6243    5.8854  -25.6536 C   0  0  0  0  0  0  0  0  0  0  0  0
  -22.3848    4.6656  -27.7394 C   0  0  0  0  0  0  0  0  0  0  0  0
  -21.9830    2.1159  -34.3526 C   0  0  0  0  0  0  0  0  0  0  0  0
  -22.0287    4.3834  -33.2935 C   0  0  0  0  0  0  0  0  0  0  0  0
  -22.1757    4.7066  -31.8494 C   0  0  0  0  0  0  0  0  0  0  0  0
  -22.0016    4.8248  -24.8490 C   0  0  0  0  0  0  0  0  0  0  0  0
  -21.7730    3.6255  -27.0379 C   0  0  0  0  0  0  0  0  0  0  0  0
  -21.5879    3.7133  -25.6517 C   0  0  0  0  0  0  0  0  0  0  0  0
  -32.5845    3.0540  -33.8710 O   0  0  0  0  0  0  0  0  0  0  0  0
  -27.7321   -1.4650  -31.6287 O   0  0  0  0  0  0  0  0  0  0  0  0
  -22.6475    1.6643  -35.3943 O   0  0  0  0  0  0  0  0  0  0  0  0
  -20.8450    1.8561  -34.0596 O   0  0  0  0  0  0  0  0  0  0  0  0
  -32.2348    2.3363  -35.8864 N   0  0  0  0  0  0  0  0  0  0  0  0
  -23.1844    2.6150  -32.1798 N   0  0  0  0  0  0  0  0  0  0  0  0
  -22.8154    3.5238  -31.2845 N   0  0  0  0  0  0  0  0  0  0  0  0
  -29.4821   -0.7717  -33.7110 S   0  0  0  0  0  0  0  0  0  0  0  0
  -21.3046    5.4090  -30.1213 S   0  0  0  0  0  0  0  0  0  0  0  0
  1 27  1  0
  2  4  1  0
  2 27  1  0
  2 31  2  0
  3  4  2  0
  3 34  1  0
  4  5  1  0
  5  6  1  0
  6  7  2  0
  7  8  1  0
  7 34  1  0
  8  9  1  0
  8 28  2  0
  9 10  2  0
  9 11  1  0
 10 13  1  0
 11 12  2  0
 12 14  1  0
 13 14  2  0
 13 32  1  0
 15 18  1  0
 15 33  1  0
 16 21  1  0
 16 22  1  0
 16 32  1  0
 17 19  1  0
 17 20  2  0
 18 20  1  0
 18 35  1  0
 19 24  1  0
 20 25  1  0
 21 29  2  0
 21 30  1  0
 22 23  1  0
 23 35  1  0
 24 26  1  0
 25 26  2  0
M  END
$$$$

     RDKit          3D

 41 45  0  0  0  0  0  0  0  0999 V2000
  -29.1888    4.2745  -38.2518 C   0  0  0  0  0  0  0  0  0  0  0  0
  -28.5142    0.1219  -33.6066 C   0  0  0  0  0  0  0  0  0  0  0  0
  -28.6370    3.7940  -37.0677 C   0  0  0  0  0  0  0  0  0  0  0  0
  -28.3241    1.4229  -33.0714 C   0  0  0  0  0  0  0  0  0  0  0  0
  -28.3593    4.4570  -39.3992 C   0  0  0  0  0  0  0  0  0  0  0  0
  -27.3869   -0.6566  -33.8963 C   0  0  0  0  0  0  0  0  0  0  0  0
  -27.2598    3.5289  -36.9987 C   0  0  0  0  0  0  0  0  0  0  0  0
  -27.0159    1.9321  -32.8023 C   0  0  0  0  0  0  0  0  0  0  0  0
  -27.0374    4.2052  -39.3054 C   0  0  0  0  0  0  0  0  0  0  0  0
  -26.7782    3.1997  -32.1784 C   0  0  0  0  0  0  0  0  0  0  0  0
  -26.4627    3.7280  -38.1156 C   0  0  0  0  0  0  0  0  0  0  0  0
  -26.1376   -0.1836  -33.6366 C   0  0  0  0  0  0  0  0  0  0  0  0
  -25.9111    1.0925  -33.1032 C   0  0  0  0  0  0  0  0  0  0  0  0
  -25.4565    3.5788  -31.8359 C   0  0  0  0  0  0  0  0  0  0  0  0
  -25.0398    3.5950  -38.1186 C   0  0  0  0  0  0  0  0  0  0  0  0
  -24.5691    1.5583  -32.8208 C   0  0  0  0  0  0  0  0  0  0  0  0
  -24.3309    2.7443  -32.1270 C   0  0  0  0  0  0  0  0  0  0  0  0
  -24.3050    3.3283  -36.9752 C   0  0  0  0  0  0  0  0  0  0  0  0
  -24.3727    3.6900  -39.3481 C   0  0  0  0  0  0  0  0  0  0  0  0
  -23.0074    3.5703  -39.4488 C   0  0  0  0  0  0  0  0  0  0  0  0
  -22.9065    3.2424  -37.0485 C   0  0  0  0  0  0  0  0  0  0  0  0
  -22.4983    4.4052  -32.3543 C   0  0  0  0  0  0  0  0  0  0  0  0
  -22.4134    2.4863  -30.6328 C   0  0  0  0  0  0  0  0  0  0  0  0
  -22.2823    3.3172  -38.3003 C   0  0  0  0  0  0  0  0  0  0  0  0
  -22.1515    3.0877  -35.8189 C   0  0  0  0  0  0  0  0  0  0  0  0
  -21.7087    1.1670  -30.7187 C   0  0  0  0  0  0  0  0  0  0  0  0
  -21.9403    3.8835  -25.9505 C   0  0  0  0  0  0  0  0  0  0  0  0
  -21.6694    1.7282  -28.3265 C   0  0  0  0  0  0  0  0  0  0  0  0
  -21.6315    4.0302  -33.5976 C   0  0  0  0  0  0  0  0  0  0  0  0
  -21.3107    0.6697  -29.3392 C   0  0  0  0  0  0  0  0  0  0  0  0
  -21.3335    2.5035  -25.8983 C   0  0  0  0  0  0  0  0  0  0  0  0
  -21.0064    0.8151  -31.8444 C   0  0  0  0  0  0  0  0  0  0  0  0
  -20.4727    0.4615  -26.5829 C   0  0  0  0  0  0  0  0  0  0  0  0
  -20.2588    0.5911  -25.1894 C   0  0  0  0  0  0  0  0  0  0  0  0
  -21.2386    2.2409  -35.7562 O   0  0  0  0  0  0  0  0  0  0  0  0
  -23.0598    3.1596  -31.6854 N   0  0  0  0  0  0  0  0  0  0  0  0
  -22.4368    3.9378  -34.7808 N   0  0  0  0  0  0  0  0  0  0  0  0
  -21.1601    1.6008  -27.0048 N   0  0  0  0  0  0  0  0  0  0  0  0
  -22.1749    3.0808  -29.1630 S   0  0  0  0  0  0  0  0  0  0  0  0
  -30.8798    4.5919  -38.5528 Cl  0  0  0  0  0  0  0  0  0  0  0  0
  -30.0493   -0.4283  -33.8420 Cl  0  0  0  0  0  0  0  0  0  0  0  0
  1  3  2  0
  1  5  1  0
  1 40  1  0
  2  4  2  0
  2  6  1  0
  2 41  1  0
  3  7  1  0
  4  8  1  0
  5  9  2  0
  6 12  2  0
  7 11  2  0
  8 10  2  0
  8 13  1  0
  9 11  1  0
 10 14  1  0
 11 15  1  0
 12 13  1  0
 13 16  2  0
 14 17  2  0
 15 18  2  0
 15 19  1  0
 16 17  1  0
 17 36  1  0
 18 21  1  0
 19 20  2  0
 20 24  1  0
 21 24  2  0
 21 25  1  0
 22 29  1  0
 22 36  1  0
 23 26  1  0
 23 36  1  0
 23 39  1  0
 25 35  2  0
 25 37  1  0
 26 30  1  0
 26 32  2  0
 27 31  1  0
 28 30  1  0
 28 38  1  0
 28 39  1  0
 29 37  1  0
 31 38  1  0
 33 34  1  0
 33 38  1  0
M  END
$$$$

     RDKit          3D

 50 58  0  0  0  0  0  0  0  0999 V2000
  -29.3044    5.0403  -36.1535 C   0  0  0  0  0  0  0  0  0  0  0  0
  -29.4584    5.2015  -31.8368 C   0  0  0  0  0  0  0  0  0  0  0  0
  -28.8856    3.5658  -38.1210 C   0  0  0  0  0  0  0  0  0  0  0  0
  -28.8426    3.9360  -35.1485 C   0  0  0  0  0  0  0  0  0  0  0  0
  -28.5069    2.4444  -37.1413 C   0  0  0  0  0  0  0  0  0  0  0  0
  -28.4983    4.5993  -33.8541 C   0  0  0  0  0  0  0  0  0  0  0  0
  -28.2196    5.6213  -31.3812 C   0  0  0  0  0  0  0  0  0  0  0  0
  -28.1403   -0.7117  -32.9272 C   0  0  0  0  0  0  0  0  0  0  0  0
  -28.0761    5.9714  -30.0468 C   0  0  0  0  0  0  0  0  0  0  0  0
  -27.7657    3.0996  -35.9102 C   0  0  0  0  0  0  0  0  0  0  0  0
  -27.6685   -1.4799  -31.9045 C   0  0  0  0  0  0  0  0  0  0  0  0
  -27.3297    0.2478  -33.5560 C   0  0  0  0  0  0  0  0  0  0  0  0
  -27.0826    1.9945  -35.0805 C   0  0  0  0  0  0  0  0  0  0  0  0
  -27.1182    5.6555  -32.2939 C   0  0  0  0  0  0  0  0  0  0  0  0
  -26.8680    6.3859  -29.5838 C   0  0  0  0  0  0  0  0  0  0  0  0
  -26.3746   -1.3075  -31.4369 C   0  0  0  0  0  0  0  0  0  0  0  0
  -26.0089    0.3856  -33.1308 C   0  0  0  0  0  0  0  0  0  0  0  0
  -25.8960    6.1299  -31.7724 C   0  0  0  0  0  0  0  0  0  0  0  0
  -25.7840    6.4693  -30.4390 C   0  0  0  0  0  0  0  0  0  0  0  0
  -25.5269   -0.3780  -32.0799 C   0  0  0  0  0  0  0  0  0  0  0  0
  -25.6462    2.0276  -34.8502 C   0  0  0  0  0  0  0  0  0  0  0  0
  -24.1838   -0.2179  -31.6812 C   0  0  0  0  0  0  0  0  0  0  0  0
  -23.8736    1.4278  -33.3253 C   0  0  0  0  0  0  0  0  0  0  0  0
  -22.5207   -0.9497  -30.3624 C   0  0  0  0  0  0  0  0  0  0  0  0
  -22.0487   -2.0169  -29.5906 C   0  0  0  0  0  0  0  0  0  0  0  0
  -22.0961    0.7691  -31.8652 C   0  0  0  0  0  0  0  0  0  0  0  0
  -21.5809    2.7284  -26.6914 C   0  0  0  0  0  0  0  0  0  0  0  0
  -21.5910    3.2140  -32.3784 C   0  0  0  0  0  0  0  0  0  0  0  0
  -21.3353    1.9891  -27.8731 C   0  0  0  0  0  0  0  0  0  0  0  0
  -21.1413    1.7851  -32.3953 C   0  0  0  0  0  0  0  0  0  0  0  0
  -21.1650    4.0886  -33.5558 C   0  0  0  0  0  0  0  0  0  0  0  0
  -20.7072    0.8255  -26.1549 C   0  0  0  0  0  0  0  0  0  0  0  0
  -20.2508   -0.3607  -30.8223 C   0  0  0  0  0  0  0  0  0  0  0  0
  -20.3023   -0.2631  -28.3347 C   0  0  0  0  0  0  0  0  0  0  0  0
  -20.1703   -0.2745  -25.4055 C   0  0  0  0  0  0  0  0  0  0  0  0
  -19.5748   -1.3363  -27.6552 C   0  0  0  0  0  0  0  0  0  0  0  0
  -19.6097    0.2693  -29.5690 C   0  0  0  0  0  0  0  0  0  0  0  0
  -19.0664   -0.9790  -26.2334 C   0  0  0  0  0  0  0  0  0  0  0  0
  -24.7430    2.6321  -35.5711 O   0  0  0  0  0  0  0  0  0  0  0  0
  -23.7699   -0.9948  -30.7040 O   0  0  0  0  0  0  0  0  0  0  0  0
  -22.7649   -3.2054  -29.5332 O   0  0  0  0  0  0  0  0  0  0  0  0
  -29.6641    4.6322  -37.4987 N   0  0  0  0  0  0  0  0  0  0  0  0
  -29.5299    4.7149  -33.0209 N   0  0  0  0  0  0  0  0  0  0  0  0
  -27.8330    1.0703  -34.4840 N   0  0  0  0  0  0  0  0  0  0  0  0
  -27.2899    5.1350  -33.5556 N   0  0  0  0  0  0  0  0  0  0  0  0
  -25.1744    1.2670  -33.7741 N   0  0  0  0  0  0  0  0  0  0  0  0
  -23.3852    0.6728  -32.2928 N   0  0  0  0  0  0  0  0  0  0  0  0
  -21.6786   -0.0754  -30.8907 N   0  0  0  0  0  0  0  0  0  0  0  0
  -21.1905    1.9498  -25.6042 N   0  0  0  0  0  0  0  0  0  0  0  0
  -20.7800    0.8104  -27.5050 N   0  0  0  0  0  0  0  0  0  0  0  0
  1  4  1  0
  1 42  1  0
  2  7  1  0
  2 43  2  0
  3  5  1  0
  3 42  1  0
  4  6  1  0
  4 10  1  0
  5 10  1  0
  6 43  1  0
  6 45  2  0
  7  9  1  0
  7 14  1  0
  8 11  2  0
  8 12  1  0
  9 15  2  0
 10 13  1  0
 11 16  1  0
 12 17  2  0
 12 44  1  0
 13 21  1  0
 13 44  2  0
 14 18  2  0
 14 45  1  0
 15 19  1  0
 16 20  1  0
 17 20  1  0
 17 46  1  0
 18 19  1  0
 20 22  2  0
 21 39  2  0
 21 46  1  0
 22 40  1  0
 22 47  1  0
 23 46  1  0
 23 47  1  0
 24 25  1  0
 24 40  1  0
 24 48  1  0
 25 41  1  0
 26 30  1  0
 26 47  1  0
 26 48  1  0
 27 29  1  0
 27 49  1  0
 28 30  1  0
 28 31  1  0
 29 50  1  0
 32 35  1  0
 32 49  2  0
 32 50  1  0
 33 37  1  0
 33 48  1  0
 34 36  1  0
 34 37  1  0
 34 50  1  0
 35 38  1  0
 36 38  1  0
M  END
$$$$

     RDKit          3D

 51 58  0  0  0  0  0  0  0  0999 V2000
  -31.3980    0.9968  -37.1002 C   0  0  0  0  0  0  0  0  0  0  0  0
  -31.1686   -1.4184  -36.7786 C   0  0  0  0  0  0  0  0  0  0  0  0
  -31.0531    2.2481  -36.8078 C   0  0  0  0  0  0  0  0  0  0  0  0
  -30.8708   -0.0744  -36.3832 C   0  0  0  0  0  0  0  0  0  0  0  0
  -30.6450   -2.4442  -36.0426 C   0  0  0  0  0  0  0  0  0  0  0  0
  -30.0105    0.1686  -35.2819 C   0  0  0  0  0  0  0  0  0  0  0  0
  -30.1233    2.5551  -35.8113 C   0  0  0  0  0  0  0  0  0  0  0  0
  -29.8716   -2.2023  -34.9040 C   0  0  0  0  0  0  0  0  0  0  0  0
  -29.7154    3.9837  -35.6560 C   0  0  0  0  0  0  0  0  0  0  0  0
  -29.5635   -0.9189  -34.5374 C   0  0  0  0  0  0  0  0  0  0  0  0
  -29.6397    1.5095  -35.0091 C   0  0  0  0  0  0  0  0  0  0  0  0
  -28.2773    4.4714  -35.9117 C   0  0  0  0  0  0  0  0  0  0  0  0
  -27.5406    3.5351  -37.7973 C   0  0  0  0  0  0  0  0  0  0  0  0
  -27.1607    4.3157  -34.7464 C   0  0  0  0  0  0  0  0  0  0  0  0
  -26.4595    5.6688  -37.9971 C   0  0  0  0  0  0  0  0  0  0  0  0
  -26.2241   -0.9204  -33.3753 C   0  0  0  0  0  0  0  0  0  0  0  0
  -26.2750   -0.5566  -32.0420 C   0  0  0  0  0  0  0  0  0  0  0  0
  -26.2962    3.7535  -33.6076 C   0  0  0  0  0  0  0  0  0  0  0  0
  -25.5263    0.5276  -31.5958 C   0  0  0  0  0  0  0  0  0  0  0  0
  -25.4189   -0.2509  -34.2809 C   0  0  0  0  0  0  0  0  0  0  0  0
  -24.7357    1.2183  -32.4839 C   0  0  0  0  0  0  0  0  0  0  0  0
  -24.6234    0.8183  -33.8309 C   0  0  0  0  0  0  0  0  0  0  0  0
  -24.3112    4.8963  -34.6021 C   0  0  0  0  0  0  0  0  0  0  0  0
  -23.8719    3.3988  -33.0358 C   0  0  0  0  0  0  0  0  0  0  0  0
  -23.2289    3.0600  -29.8389 C   0  0  0  0  0  0  0  0  0  0  0  0
  -23.1830    2.1749  -30.9446 C   0  0  0  0  0  0  0  0  0  0  0  0
  -22.8581    4.9620  -34.4023 C   0  0  0  0  0  0  0  0  0  0  0  0
  -22.6362    3.9393  -33.4474 C   0  0  0  0  0  0  0  0  0  0  0  0
  -22.4378    2.4595  -28.8002 C   0  0  0  0  0  0  0  0  0  0  0  0
  -22.0970    2.9695  -27.5431 C   0  0  0  0  0  0  0  0  0  0  0  0
  -21.8618    0.0358  -31.4088 C   0  0  0  0  0  0  0  0  0  0  0  0
  -21.9226    1.2596  -29.2570 C   0  0  0  0  0  0  0  0  0  0  0  0
  -21.3045    2.2366  -26.6539 C   0  0  0  0  0  0  0  0  0  0  0  0
  -21.2831    3.6524  -32.8876 C   0  0  0  0  0  0  0  0  0  0  0  0
  -21.0992    0.5200  -28.3763 C   0  0  0  0  0  0  0  0  0  0  0  0
  -20.9665    3.9591  -31.5903 C   0  0  0  0  0  0  0  0  0  0  0  0
  -20.7993    1.0069  -27.1041 C   0  0  0  0  0  0  0  0  0  0  0  0
  -20.4570   -0.7464  -28.5745 C   0  0  0  0  0  0  0  0  0  0  0  0
  -20.3718    2.9777  -33.7090 C   0  0  0  0  0  0  0  0  0  0  0  0
  -19.7649   -1.0274  -27.2307 C   0  0  0  0  0  0  0  0  0  0  0  0
  -19.7892    3.5278  -31.0421 C   0  0  0  0  0  0  0  0  0  0  0  0
  -19.3965    0.3472  -25.1597 C   0  0  0  0  0  0  0  0  0  0  0  0
  -19.1586    2.5429  -33.1318 C   0  0  0  0  0  0  0  0  0  0  0  0
  -18.9090    2.8070  -31.7938 C   0  0  0  0  0  0  0  0  0  0  0  0
  -27.8184    3.4494  -36.4287 O   0  0  0  0  0  0  0  0  0  0  0  0
  -26.4378    4.3354  -37.7704 O   0  0  0  0  0  0  0  0  0  0  0  0
  -23.8137    4.1364  -29.8145 O   0  0  0  0  0  0  0  0  0  0  0  0
  -24.8556    3.9198  -33.8082 N   0  0  0  0  0  0  0  0  0  0  0  0
  -23.9845    2.3222  -32.1118 N   0  0  0  0  0  0  0  0  0  0  0  0
  -22.3618    1.1000  -30.5932 N   0  0  0  0  0  0  0  0  0  0  0  0
  -20.0097    0.1497  -26.3916 N   0  0  0  0  0  0  0  0  0  0  0  0
  1  3  2  0
  1  4  1  0
  2  4  1  0
  2  5  2  0
  3  7  1  0
  4  6  1  0
  5  8  1  0
  6 10  1  0
  6 11  2  0
  7  9  1  0
  7 11  1  0
  8 10  2  0
  9 12  1  0
 12 14  1  0
 12 45  1  0
 13 45  1  0
 13 46  1  0
 14 18  1  0
 15 46  1  0
 16 17  1  0
 16 20  2  0
 17 19  1  0
 18 48  1  0
 19 21  2  0
 20 22  1  0
 21 22  1  0
 21 49  1  0
 23 27  1  0
 23 48  1  0
 24 28  2  0
 24 48  1  0
 24 49  1  0
 25 26  1  0
 25 29  1  0
 25 47  2  0
 26 49  1  0
 26 50  1  0
 27 28  1  0
 28 34  1  0
 29 30  1  0
 29 32  2  0
 30 33  2  0
 31 50  1  0
 32 35  1  0
 32 50  1  0
 33 37  1  0
 34 36  2  0
 34 39  1  0
 35 37  2  0
 35 38  1  0
 36 41  1  0
 37 51  1  0
 38 40  1  0
 39 43  2  0
 40 51  1  0
 41 44  2  0
 42 51  1  0
 43 44  1  0
M  END
$$$$

     RDKit          3D

 40 44  0  0  0  0  0  0  0  0999 V2000
  -31.0028    2.1141  -33.7604 C   0  0  0  0  0  0  0  0  0  0  0  0
  -30.6688    5.9857  -32.4022 C   0  0  0  0  0  0  0  0  0  0  0  0
  -29.5621    2.3469  -34.0454 C   0  0  0  0  0  0  0  0  0  0  0  0
  -29.2139    4.6345  -34.9412 C   0  0  0  0  0  0  0  0  0  0  0  0
  -29.0323    1.8462  -35.3438 C   0  0  0  0  0  0  0  0  0  0  0  0
  -28.9624    4.1561  -32.4711 C   0  0  0  0  0  0  0  0  0  0  0  0
  -29.2064    5.5668  -32.1675 C   0  0  0  0  0  0  0  0  0  0  0  0
  -26.1972    2.3630  -34.8338 C   0  0  0  0  0  0  0  0  0  0  0  0
  -25.4679    3.5451  -35.1435 C   0  0  0  0  0  0  0  0  0  0  0  0
  -24.8680   -0.0327  -31.1861 C   0  0  0  0  0  0  0  0  0  0  0  0
  -24.6054    1.6538  -33.2231 C   0  0  0  0  0  0  0  0  0  0  0  0
  -24.3378    3.8917  -34.2966 C   0  0  0  0  0  0  0  0  0  0  0  0
  -24.1618    0.6290  -32.2267 C   0  0  0  0  0  0  0  0  0  0  0  0
  -23.8249    2.8454  -33.3980 C   0  0  0  0  0  0  0  0  0  0  0  0
  -22.8014   -0.9131  -31.2141 C   0  0  0  0  0  0  0  0  0  0  0  0
  -22.8463    0.0928  -32.2103 C   0  0  0  0  0  0  0  0  0  0  0  0
  -21.7236   -3.1084  -30.8162 C   0  0  0  0  0  0  0  0  0  0  0  0
  -21.6310   -1.7061  -30.8312 C   0  0  0  0  0  0  0  0  0  0  0  0
  -21.3047    2.2180  -26.7827 C   0  0  0  0  0  0  0  0  0  0  0  0
  -21.0773    0.8542  -26.8086 C   0  0  0  0  0  0  0  0  0  0  0  0
  -21.1791    2.9579  -27.9370 C   0  0  0  0  0  0  0  0  0  0  0  0
  -20.7318    0.2151  -27.9918 C   0  0  0  0  0  0  0  0  0  0  0  0
  -20.7905    2.3439  -29.1255 C   0  0  0  0  0  0  0  0  0  0  0  0
  -20.6035   -3.8665  -30.5146 C   0  0  0  0  0  0  0  0  0  0  0  0
  -20.6070    0.9472  -29.1733 C   0  0  0  0  0  0  0  0  0  0  0  0
  -20.6048    3.0852  -30.3238 C   0  0  0  0  0  0  0  0  0  0  0  0
  -20.4078   -1.0810  -30.5007 C   0  0  0  0  0  0  0  0  0  0  0  0
  -20.2133    2.9321  -33.8680 C   0  0  0  0  0  0  0  0  0  0  0  0
  -19.7519    1.1239  -31.3734 C   0  0  0  0  0  0  0  0  0  0  0  0
  -19.7559    3.3603  -32.5209 C   0  0  0  0  0  0  0  0  0  0  0  0
  -19.3806   -3.2881  -30.2069 C   0  0  0  0  0  0  0  0  0  0  0  0
  -19.2715   -1.8874  -30.1654 C   0  0  0  0  0  0  0  0  0  0  0  0
  -25.9765    0.3221  -30.7186 O   0  0  0  0  0  0  0  0  0  0  0  0
  -18.9040    0.7601  -32.1501 O   0  0  0  0  0  0  0  0  0  0  0  0
  -29.1958    3.7433  -33.8235 N   0  0  0  0  0  0  0  0  0  0  0  0
  -27.5032    2.1809  -35.4280 N   0  0  0  0  0  0  0  0  0  0  0  0
  -25.7255    1.4380  -33.9757 N   0  0  0  0  0  0  0  0  0  0  0  0
  -24.0854   -1.0382  -30.6616 N   0  0  0  0  0  0  0  0  0  0  0  0
  -20.2846    0.3039  -30.3845 N   0  0  0  0  0  0  0  0  0  0  0  0
  -20.1153    2.4714  -31.3941 N   0  0  0  0  0  0  0  0  0  0  0  0
  1  3  1  0
  2  7  1  0
  3  5  1  0
  3 35  1  0
  4 35  1  0
  5 36  1  0
  6  7  1  0
  6 35  1  0
  8  9  2  0
  8 36  1  0
  8 37  1  0
  9 12  1  0
 10 13  1  0
 10 33  2  0
 10 38  1  0
 11 13  1  0
 11 14  1  0
 11 37  2  0
 12 14  2  0
 13 16  1  0
 15 16  1  0
 15 18  1  0
 15 38  1  0
 17 18  2  0
 17 24  1  0
 18 27  1  0
 19 20  1  0
 19 21  2  0
 20 22  2  0
 21 23  1  0
 22 25  1  0
 23 25  1  0
 23 26  2  0
 24 31  2  0
 25 39  1  0
 26 40  1  0
 27 32  2  0
 27 39  1  0
 28 30  1  0
 29 34  2  0
 29 39  1  0
 29 40  1  0
 30 40  1  0
 31 32  1  0
M  END
$$$$

     RDKit          3D

 39 43  0  0  0  0  0  0  0  0999 V2000
  -32.4348   -1.2768  -36.5515 C   0  0  0  0  0  0  0  0  0  0  0  0
  -31.6438    0.2896  -34.6238 C   0  0  0  0  0  0  0  0  0  0  0  0
  -31.2096   -2.0484  -36.3844 C   0  0  0  0  0  0  0  0  0  0  0  0
  -30.9571   -3.2902  -37.2684 C   0  0  0  0  0  0  0  0  0  0  0  0
  -30.4835   -0.6176  -34.5502 C   0  0  0  0  0  0  0  0  0  0  0  0
  -30.3457   -1.7780  -35.3160 C   0  0  0  0  0  0  0  0  0  0  0  0
  -29.5533   -0.3469  -33.4336 C   0  0  0  0  0  0  0  0  0  0  0  0
  -28.4125   -0.9714  -33.0708 C   0  0  0  0  0  0  0  0  0  0  0  0
  -26.9908   -0.7749  -33.1598 C   0  0  0  0  0  0  0  0  0  0  0  0
  -27.0847    8.2288  -31.0003 C   0  0  0  0  0  0  0  0  0  0  0  0
  -26.4944    7.2038  -31.9635 C   0  0  0  0  0  0  0  0  0  0  0  0
  -26.4371    8.3532  -29.6852 C   0  0  0  0  0  0  0  0  0  0  0  0
  -26.0688   -0.7486  -32.0112 C   0  0  0  0  0  0  0  0  0  0  0  0
  -26.1455   -0.4525  -34.3247 C   0  0  0  0  0  0  0  0  0  0  0  0
  -25.9600    7.0480  -29.3387 C   0  0  0  0  0  0  0  0  0  0  0  0
  -24.8746   -0.1308  -33.8165 C   0  0  0  0  0  0  0  0  0  0  0  0
  -24.8097   -0.2910  -32.4570 C   0  0  0  0  0  0  0  0  0  0  0  0
  -24.9380    3.8213  -32.1125 C   0  0  0  0  0  0  0  0  0  0  0  0
  -24.9028    6.6103  -30.2208 C   0  0  0  0  0  0  0  0  0  0  0  0
  -24.7022    6.5529  -33.9778 C   0  0  0  0  0  0  0  0  0  0  0  0
  -24.2257    6.2825  -32.5248 C   0  0  0  0  0  0  0  0  0  0  0  0
  -23.9314    4.8414  -32.2680 C   0  0  0  0  0  0  0  0  0  0  0  0
  -23.2690    2.1993  -31.7273 C   0  0  0  0  0  0  0  0  0  0  0  0
  -22.8706    0.8614  -31.5911 C   0  0  0  0  0  0  0  0  0  0  0  0
  -22.2980    3.2236  -31.7067 C   0  0  0  0  0  0  0  0  0  0  0  0
  -21.4902    0.5829  -31.3284 C   0  0  0  0  0  0  0  0  0  0  0  0
  -21.0120   -0.7560  -31.1832 C   0  0  0  0  0  0  0  0  0  0  0  0
  -20.9714    2.9759  -31.3498 C   0  0  0  0  0  0  0  0  0  0  0  0
  -20.5728    1.6407  -31.1218 C   0  0  0  0  0  0  0  0  0  0  0  0
  -19.6873   -0.9786  -30.8248 C   0  0  0  0  0  0  0  0  0  0  0  0
  -19.2259    1.3540  -30.7657 C   0  0  0  0  0  0  0  0  0  0  0  0
  -18.8049    0.0640  -30.5951 C   0  0  0  0  0  0  0  0  0  0  0  0
  -28.4416    7.9468  -30.7154 O   0  0  0  0  0  0  0  0  0  0  0  0
  -24.5688    2.5457  -31.7406 O   0  0  0  0  0  0  0  0  0  0  0  0
  -23.7398   -0.1695  -31.6118 O   0  0  0  0  0  0  0  0  0  0  0  0
  -25.1989    6.7909  -31.5998 N   0  0  0  0  0  0  0  0  0  0  0  0
  -22.6746    4.5112  -31.9482 N   0  0  0  0  0  0  0  0  0  0  0  0
  -20.1848    3.9814  -31.2077 F   0  0  0  0  0  0  0  0  0  0  0  0
  -19.2351   -2.2487  -30.8245 F   0  0  0  0  0  0  0  0  0  0  0  0
  1  3  1  0
  2  5  1  0
  3  4  1  0
  3  6  2  3
  5  6  1  0
  5  7  2  3
  7  8  1  0
  8  9  1  0
  9 13  1  0
  9 14  1  0
 10 11  1  0
 10 12  1  0
 10 33  1  0
 11 36  1  0
 12 15  1  0
 13 17  1  0
 14 16  1  0
 15 19  1  0
 16 17  1  0
 17 35  1  0
 18 22  1  0
 18 34  1  0
 19 36  1  0
 20 21  1  0
 21 22  1  0
 21 36  1  0
 22 37  2  0
 23 24  2  0
 23 25  1  0
 23 34  1  0
 24 26  1  0
 24 35  1  0
 25 28  2  0
 25 37  1  0
 26 27  2  0
 26 29  1  0
 27 30  1  0
 28 29  1  0
 28 38  1  0
 29 31  2  0
 30 32  2  0
 30 39  1  0
 31 32  1  0
M  END
$$$$

     RDKit          3D

 34 37  0  0  0  0  0  0  0  0999 V2000
  -31.2280    1.3043  -34.3415 C   0  0  0  0  0  0  0  0  0  0  0  0
  -30.9798    2.5302  -34.9494 C   0  0  0  0  0  0  0  0  0  0  0  0
  -30.1460    0.5632  -33.8984 C   0  0  0  0  0  0  0  0  0  0  0  0
  -29.6640    2.9730  -35.1890 C   0  0  0  0  0  0  0  0  0  0  0  0
  -28.8402    0.9567  -34.1322 C   0  0  0  0  0  0  0  0  0  0  0  0
  -28.5638    2.2026  -34.7834 C   0  0  0  0  0  0  0  0  0  0  0  0
  -27.7874    0.1691  -33.7505 C   0  0  0  0  0  0  0  0  0  0  0  0
  -26.9249    3.9078  -35.5140 C   0  0  0  0  0  0  0  0  0  0  0  0
  -26.4844    0.5369  -33.9909 C   0  0  0  0  0  0  0  0  0  0  0  0
  -26.2158    1.7905  -34.5667 C   0  0  0  0  0  0  0  0  0  0  0  0
  -24.8274    0.0052  -32.4418 C   0  0  0  0  0  0  0  0  0  0  0  0
  -24.7860    4.0040  -32.9861 C   0  0  0  0  0  0  0  0  0  0  0  0
  -24.1621    2.9631  -33.7415 C   0  0  0  0  0  0  0  0  0  0  0  0
  -23.9900    4.8256  -32.1075 C   0  0  0  0  0  0  0  0  0  0  0  0
  -23.2887   -0.8327  -30.7302 C   0  0  0  0  0  0  0  0  0  0  0  0
  -22.7301    2.8616  -33.7210 C   0  0  0  0  0  0  0  0  0  0  0  0
  -22.5462    0.4599  -30.4664 C   0  0  0  0  0  0  0  0  0  0  0  0
  -22.5439    4.8174  -32.1872 C   0  0  0  0  0  0  0  0  0  0  0  0
  -22.3245   -1.9439  -30.5532 C   0  0  0  0  0  0  0  0  0  0  0  0
  -21.9652    0.6818  -29.1268 C   0  0  0  0  0  0  0  0  0  0  0  0
  -22.0402    2.0883  -28.8360 C   0  0  0  0  0  0  0  0  0  0  0  0
  -22.1766    3.9665  -27.2983 C   0  0  0  0  0  0  0  0  0  0  0  0
  -21.8029    2.6555  -27.5149 C   0  0  0  0  0  0  0  0  0  0  0  0
  -21.9381    4.5540  -26.0612 C   0  0  0  0  0  0  0  0  0  0  0  0
  -21.2162    1.9108  -26.4927 C   0  0  0  0  0  0  0  0  0  0  0  0
  -21.3531    3.8285  -25.0187 C   0  0  0  0  0  0  0  0  0  0  0  0
  -20.9666    2.4899  -25.2309 C   0  0  0  0  0  0  0  0  0  0  0  0
  -20.5079    3.6934  -33.0172 C   0  0  0  0  0  0  0  0  0  0  0  0
  -25.1607    1.0203  -31.8022 O   0  0  0  0  0  0  0  0  0  0  0  0
  -27.2414    2.6095  -34.9740 N   0  0  0  0  0  0  0  0  0  0  0  0
  -25.4588   -0.2895  -33.6218 N   0  0  0  0  0  0  0  0  0  0  0  0
  -24.8620    2.1864  -34.7130 N   0  0  0  0  0  0  0  0  0  0  0  0
  -23.8567   -0.8669  -32.0805 N   0  0  0  0  0  0  0  0  0  0  0  0
  -21.9649    3.7828  -32.9744 N   0  0  0  0  0  0  0  0  0  0  0  0
  1  2  2  0
  1  3  1  0
  2  4  1  0
  3  5  2  0
  4  6  2  0
  5  6  1  0
  5  7  1  0
  6 30  1  0
  7  9  2  0
  8 30  1  0
  9 10  1  0
  9 31  1  0
 10 30  1  0
 10 32  2  3
 11 29  2  0
 11 31  1  0
 11 33  1  0
 12 13  1  0
 12 14  1  0
 13 16  2  0
 13 32  1  0
 14 18  2  0
 15 17  1  0
 15 19  1  0
 15 33  1  0
 16 34  1  0
 17 20  1  0
 18 34  1  0
 20 21  1  0
 21 23  1  0
 22 23  2  0
 22 24  1  0
 23 25  1  0
 24 26  2  0
 25 27  2  0
 26 27  1  0
 28 34  1  0
M  END
$$$$

     RDKit          3D

 44 48  0  0  0  0  0  0  0  0999 V2000
  -29.7973   -1.0537  -34.5043 C   0  0  0  0  0  0  0  0  0  0  0  0
  -29.7801    0.1036  -35.3225 C   0  0  0  0  0  0  0  0  0  0  0  0
  -28.9666   -1.1716  -33.3927 C   0  0  0  0  0  0  0  0  0  0  0  0
  -28.8806    1.1668  -35.0102 C   0  0  0  0  0  0  0  0  0  0  0  0
  -28.6342    2.4430  -35.7843 C   0  0  0  0  0  0  0  0  0  0  0  0
  -28.6141    2.4771  -37.3244 C   0  0  0  0  0  0  0  0  0  0  0  0
  -28.1295   -0.0925  -33.0423 C   0  0  0  0  0  0  0  0  0  0  0  0
  -28.0717    1.0749  -33.8440 C   0  0  0  0  0  0  0  0  0  0  0  0
  -27.7117    3.8605  -39.2542 C   0  0  0  0  0  0  0  0  0  0  0  0
  -26.3214    3.4759  -37.2154 C   0  0  0  0  0  0  0  0  0  0  0  0
  -25.8700    2.2007  -33.8909 C   0  0  0  0  0  0  0  0  0  0  0  0
  -25.2197    1.1401  -34.5321 C   0  0  0  0  0  0  0  0  0  0  0  0
  -24.9666    0.6696  -30.5828 C   0  0  0  0  0  0  0  0  0  0  0  0
  -25.0444    3.3413  -38.0055 C   0  0  0  0  0  0  0  0  0  0  0  0
  -25.0880    3.3439  -33.5722 C   0  0  0  0  0  0  0  0  0  0  0  0
  -24.7877   -0.5815  -31.1452 C   0  0  0  0  0  0  0  0  0  0  0  0
  -23.9997    2.8706  -29.8783 C   0  0  0  0  0  0  0  0  0  0  0  0
  -23.8301    1.1589  -34.7499 C   0  0  0  0  0  0  0  0  0  0  0  0
  -23.9011    1.5730  -30.5982 C   0  0  0  0  0  0  0  0  0  0  0  0
  -23.5805   -0.9476  -31.6085 C   0  0  0  0  0  0  0  0  0  0  0  0
  -23.6881    3.3719  -33.7537 C   0  0  0  0  0  0  0  0  0  0  0  0
  -23.0534    2.2363  -34.3261 C   0  0  0  0  0  0  0  0  0  0  0  0
  -22.9371    5.1182  -28.0017 C   0  0  0  0  0  0  0  0  0  0  0  0
  -22.7671    5.5786  -26.7074 C   0  0  0  0  0  0  0  0  0  0  0  0
  -22.5399   -0.0613  -31.7209 C   0  0  0  0  0  0  0  0  0  0  0  0
  -22.6873    1.2540  -31.2214 C   0  0  0  0  0  0  0  0  0  0  0  0
  -22.4393    3.8791  -28.3450 C   0  0  0  0  0  0  0  0  0  0  0  0
  -22.2022    4.7617  -25.7356 C   0  0  0  0  0  0  0  0  0  0  0  0
  -21.8519    2.9930  -27.4214 C   0  0  0  0  0  0  0  0  0  0  0  0
  -21.7884    3.4915  -30.6762 C   0  0  0  0  0  0  0  0  0  0  0  0
  -21.7065    3.4733  -26.0958 C   0  0  0  0  0  0  0  0  0  0  0  0
  -21.5414    2.1410  -34.4800 C   0  0  0  0  0  0  0  0  0  0  0  0
  -20.5489    2.0573  -32.1701 C   0  0  0  0  0  0  0  0  0  0  0  0
  -19.4019    1.4445  -31.4487 C   0  0  0  0  0  0  0  0  0  0  0  0
  -27.2010    2.1252  -33.4984 O   0  0  0  0  0  0  0  0  0  0  0  0
  -21.2104    4.5377  -30.9527 O   0  0  0  0  0  0  0  0  0  0  0  0
  -21.0369    2.1170  -35.6076 O   0  0  0  0  0  0  0  0  0  0  0  0
  -19.4295    0.2117  -31.1061 O   0  0  0  0  0  0  0  0  0  0  0  0
  -18.5277    2.2593  -31.0653 O   0  0  0  0  0  0  0  0  0  0  0  0
  -27.4728    3.1475  -37.9870 N   0  0  0  0  0  0  0  0  0  0  0  0
  -22.6779    3.3982  -29.6345 N   0  0  0  0  0  0  0  0  0  0  0  0
  -21.6805    2.2969  -31.3485 N   0  0  0  0  0  0  0  0  0  0  0  0
  -21.1927    2.7405  -25.0203 N   0  0  0  0  0  0  0  0  0  0  0  0
  -20.6242    1.8810  -33.5394 N   0  0  0  0  0  0  0  0  0  0  0  0
  1  2  2  0
  1  3  1  0
  2  4  1  0
  3  7  2  0
  4  5  1  0
  4  8  2  0
  5  6  1  0
  6 40  1  0
  7  8  1  0
  8 35  1  0
  9 40  1  0
 10 14  1  0
 10 40  1  0
 11 12  2  0
 11 15  1  0
 11 35  1  0
 12 18  1  0
 13 16  2  0
 13 19  1  0
 15 21  2  0
 16 20  1  0
 17 19  1  0
 17 41  1  0
 18 22  2  0
 19 26  2  0
 20 25  2  0
 21 22  1  0
 22 32  1  0
 23 24  2  0
 23 27  1  0
 24 28  1  0
 25 26  1  0
 26 42  1  0
 27 29  2  0
 27 41  1  0
 28 31  2  0
 29 31  1  0
 30 36  2  0
 30 41  1  0
 30 42  1  0
 31 43  1  0
 32 37  2  0
 32 44  1  0
 33 34  1  0
 33 42  1  0
 33 44  2  3
 34 38  2  0
 34 39  1  0
M  END
$$$$

     RDKit          3D

 39 43  0  0  0  0  0  0  0  0999 V2000
  -31.8610    0.0360  -34.8192 C   0  0  0  0  0  0  0  0  0  0  0  0
  -30.2038    1.8287  -34.3414 C   0  0  0  0  0  0  0  0  0  0  0  0
  -29.6569   -0.4392  -33.8748 C   0  0  0  0  0  0  0  0  0  0  0  0
  -28.9696    2.2308  -33.8728 C   0  0  0  0  0  0  0  0  0  0  0  0
  -28.3886   -0.0472  -33.4184 C   0  0  0  0  0  0  0  0  0  0  0  0
  -28.0772    1.3261  -33.3523 C   0  0  0  0  0  0  0  0  0  0  0  0
  -26.5067    2.4891  -31.7569 C   0  0  0  0  0  0  0  0  0  0  0  0
  -25.0985    0.0108  -31.6091 C   0  0  0  0  0  0  0  0  0  0  0  0
  -25.0665    2.5297  -31.4225 C   0  0  0  0  0  0  0  0  0  0  0  0
  -24.4899   -1.2182  -31.5046 C   0  0  0  0  0  0  0  0  0  0  0  0
  -24.4530    1.2050  -31.2246 C   0  0  0  0  0  0  0  0  0  0  0  0
  -23.9717    1.8664  -34.7413 C   0  0  0  0  0  0  0  0  0  0  0  0
  -23.7026    1.3669  -36.0161 C   0  0  0  0  0  0  0  0  0  0  0  0
  -23.2302   -1.2935  -30.9745 C   0  0  0  0  0  0  0  0  0  0  0  0
  -23.1894    1.0856  -30.6504 C   0  0  0  0  0  0  0  0  0  0  0  0
  -22.9773    2.6514  -34.1430 C   0  0  0  0  0  0  0  0  0  0  0  0
  -23.1956    3.3798  -32.9719 C   0  0  0  0  0  0  0  0  0  0  0  0
  -22.5806   -0.1479  -30.5448 C   0  0  0  0  0  0  0  0  0  0  0  0
  -22.2266    4.5321  -28.3920 C   0  0  0  0  0  0  0  0  0  0  0  0
  -22.1342    4.0772  -32.4170 C   0  0  0  0  0  0  0  0  0  0  0  0
  -21.7247    2.7196  -34.8092 C   0  0  0  0  0  0  0  0  0  0  0  0
  -21.8591    3.4404  -27.4142 C   0  0  0  0  0  0  0  0  0  0  0  0
  -21.2830    2.2855  -25.6304 C   0  0  0  0  0  0  0  0  0  0  0  0
  -21.1318    1.5046  -26.8046 C   0  0  0  0  0  0  0  0  0  0  0  0
  -20.8776    4.1034  -33.0545 C   0  0  0  0  0  0  0  0  0  0  0  0
  -20.6155    0.0963  -26.8892 C   0  0  0  0  0  0  0  0  0  0  0  0
  -20.6664    3.4211  -34.2267 C   0  0  0  0  0  0  0  0  0  0  0  0
  -31.7557   -0.5655  -35.9806 O   0  0  0  0  0  0  0  0  0  0  0  0
  -27.2515    3.1951  -31.0307 O   0  0  0  0  0  0  0  0  0  0  0  0
  -23.6603    5.6441  -30.9937 O   0  0  0  0  0  0  0  0  0  0  0  0
  -21.2532    5.7375  -30.7610 O   0  0  0  0  0  0  0  0  0  0  0  0
  -30.5729    0.4813  -34.3372 N   0  0  0  0  0  0  0  0  0  0  0  0
  -26.8489    1.7391  -32.8545 N   0  0  0  0  0  0  0  0  0  0  0  0
  -24.4516    3.4326  -32.3749 N   0  0  0  0  0  0  0  0  0  0  0  0
  -22.4999    3.8813  -29.7245 N   0  0  0  0  0  0  0  0  0  0  0  0
  -21.7799    3.5131  -26.0923 N   0  0  0  0  0  0  0  0  0  0  0  0
  -21.4869    2.2064  -27.8507 N   0  0  0  0  0  0  0  0  0  0  0  0
  -22.3948    4.9671  -30.9959 S   0  0  0  0  0  0  0  0  0  0  0  0
  -21.8424    1.9293  -36.3708 S   0  0  0  0  0  0  0  0  0  0  0  0
  1 28  1  0
  1 32  1  0
  2  4  1  0
  2 32  1  0
  3  5  2  0
  3 32  1  0
  4  6  2  0
  5  6  1  0
  6 33  1  0
  7  9  1  0
  7 29  2  0
  7 33  1  0
  8 10  2  0
  8 11  1  0
  9 11  1  0
  9 34  1  0
 10 14  1  0
 11 15  2  0
 12 13  1  0
 12 16  2  0
 13 39  1  0
 14 18  2  0
 15 18  1  0
 16 17  1  0
 16 21  1  0
 17 20  2  0
 17 34  1  0
 19 22  1  0
 19 35  1  0
 20 25  1  0
 20 38  1  0
 21 27  1  0
 21 39  1  0
 22 36  2  0
 22 37  1  0
 23 24  1  0
 23 36  1  0
 24 26  1  0
 24 37  1  0
 25 27  2  0
 30 38  1  0
 31 38  1  0
 35 38  1  0
M  END
$$$$

     RDKit          3D

 55 62  0  0  0  0  0  0  0  0999 V2000
  -32.3877    1.4876  -36.4255 C   0  0  0  0  0  0  0  0  0  0  0  0
  -32.1192    0.4093  -37.2614 C   0  0  0  0  0  0  0  0  0  0  0  0
  -31.8261    1.6052  -35.1486 C   0  0  0  0  0  0  0  0  0  0  0  0
  -31.3208   -0.6103  -36.7529 C   0  0  0  0  0  0  0  0  0  0  0  0
  -31.0036    0.5571  -34.6990 C   0  0  0  0  0  0  0  0  0  0  0  0
  -30.7796   -0.5646  -35.4715 C   0  0  0  0  0  0  0  0  0  0  0  0
  -29.1308    4.2178  -38.8083 C   0  0  0  0  0  0  0  0  0  0  0  0
  -28.7677    3.8003  -37.5563 C   0  0  0  0  0  0  0  0  0  0  0  0
  -28.6223    1.9249  -33.0297 C   0  0  0  0  0  0  0  0  0  0  0  0
  -28.0197   -0.2892  -33.4701 C   0  0  0  0  0  0  0  0  0  0  0  0
  -28.1736    4.3635  -39.8376 C   0  0  0  0  0  0  0  0  0  0  0  0
  -27.4594    3.5470  -37.1969 C   0  0  0  0  0  0  0  0  0  0  0  0
  -27.1729    1.8604  -32.5990 C   0  0  0  0  0  0  0  0  0  0  0  0
  -26.7208    0.3962  -32.9861 C   0  0  0  0  0  0  0  0  0  0  0  0
  -26.8183    4.1313  -39.5262 C   0  0  0  0  0  0  0  0  0  0  0  0
  -26.4965    2.9060  -33.4499 C   0  0  0  0  0  0  0  0  0  0  0  0
  -26.4771    3.7615  -38.2126 C   0  0  0  0  0  0  0  0  0  0  0  0
  -24.9713    3.2521  -35.7306 C   0  0  0  0  0  0  0  0  0  0  0  0
  -25.0612    3.7000  -38.1311 C   0  0  0  0  0  0  0  0  0  0  0  0
  -24.5858    4.0820  -39.3733 C   0  0  0  0  0  0  0  0  0  0  0  0
  -24.4512    2.9307  -32.1260 C   0  0  0  0  0  0  0  0  0  0  0  0
  -24.2856    3.1204  -34.5451 C   0  0  0  0  0  0  0  0  0  0  0  0
  -24.2836    3.3147  -36.9163 C   0  0  0  0  0  0  0  0  0  0  0  0
  -22.9027    3.1177  -36.9381 C   0  0  0  0  0  0  0  0  0  0  0  0
  -22.8864    3.0896  -34.5012 C   0  0  0  0  0  0  0  0  0  0  0  0
  -22.4648    2.6453  -30.7890 C   0  0  0  0  0  0  0  0  0  0  0  0
  -22.4467    3.5246  -29.6963 C   0  0  0  0  0  0  0  0  0  0  0  0
  -22.2326    5.2851  -25.4588 C   0  0  0  0  0  0  0  0  0  0  0  0
  -21.9702    1.3347  -30.6428 C   0  0  0  0  0  0  0  0  0  0  0  0
  -22.2024    2.9922  -35.7258 C   0  0  0  0  0  0  0  0  0  0  0  0
  -22.2015    3.2982  -33.1780 C   0  0  0  0  0  0  0  0  0  0  0  0
  -22.1553    4.9168  -26.9182 C   0  0  0  0  0  0  0  0  0  0  0  0
  -21.9277    0.2862  -31.7020 C   0  0  0  0  0  0  0  0  0  0  0  0
  -21.9478    3.0315  -28.4923 C   0  0  0  0  0  0  0  0  0  0  0  0
  -21.5192    0.8718  -29.4030 C   0  0  0  0  0  0  0  0  0  0  0  0
  -21.4759    1.7500  -28.3596 C   0  0  0  0  0  0  0  0  0  0  0  0
  -21.2621    2.6644  -26.4258 C   0  0  0  0  0  0  0  0  0  0  0  0
  -20.4496    0.0552  -25.2617 C   0  0  0  0  0  0  0  0  0  0  0  0
  -20.3452    0.3886  -26.6137 C   0  0  0  0  0  0  0  0  0  0  0  0
  -19.3456   -0.2755  -27.4279 C   0  0  0  0  0  0  0  0  0  0  0  0
  -18.8576   -1.8609  -25.6279 C   0  0  0  0  0  0  0  0  0  0  0  0
  -18.6635   -1.3723  -26.9451 C   0  0  0  0  0  0  0  0  0  0  0  0
  -30.4343    0.5823  -33.4786 O   0  0  0  0  0  0  0  0  0  0  0  0
  -29.4460    2.8617  -33.1262 O   0  0  0  0  0  0  0  0  0  0  0  0
  -25.1592    2.6884  -31.1239 O   0  0  0  0  0  0  0  0  0  0  0  0
  -22.7741    0.3064  -32.6172 O   0  0  0  0  0  0  0  0  0  0  0  0
  -22.4052    5.7521  -27.7579 O   0  0  0  0  0  0  0  0  0  0  0  0
  -20.9602   -0.5024  -31.6186 O   0  0  0  0  0  0  0  0  0  0  0  0
  -29.0440    0.7086  -33.5066 N   0  0  0  0  0  0  0  0  0  0  0  0
  -25.6633    4.1982  -40.2765 N   0  0  0  0  0  0  0  0  0  0  0  0
  -25.0568    2.9581  -33.3775 N   0  0  0  0  0  0  0  0  0  0  0  0
  -23.0096    3.0261  -32.0466 N   0  0  0  0  0  0  0  0  0  0  0  0
  -21.7998    3.6448  -27.2698 N   0  0  0  0  0  0  0  0  0  0  0  0
  -21.0277    1.5079  -27.1188 N   0  0  0  0  0  0  0  0  0  0  0  0
  -31.0538   -1.7275  -37.5174 F   0  0  0  0  0  0  0  0  0  0  0  0
  1  2  2  0
  1  3  1  0
  2  4  1  0
  3  5  2  0
  4  6  2  0
  4 55  1  0
  5  6  1  0
  5 43  1  0
  7  8  2  0
  7 11  1  0
  8 12  1  0
  9 13  1  0
  9 44  2  0
  9 49  1  0
 10 14  1  0
 10 49  1  0
 11 15  1  0
 12 17  1  0
 13 14  1  0
 13 16  1  0
 15 17  2  0
 15 50  1  0
 16 51  1  0
 17 19  1  0
 18 22  1  0
 18 23  2  0
 19 20  1  0
 19 23  1  0
 20 50  1  0
 21 45  2  0
 21 51  1  0
 21 52  1  0
 22 25  1  0
 22 51  1  0
 23 24  1  0
 24 30  2  0
 25 30  1  0
 25 31  1  0
 26 27  2  0
 26 29  1  0
 26 52  1  0
 27 34  1  0
 28 32  1  0
 29 33  1  0
 29 35  2  0
 31 52  1  0
 32 47  2  0
 32 53  1  0
 33 46  2  0
 33 48  1  0
 34 36  2  0
 34 53  1  0
 35 36  1  0
 36 54  1  0
 37 53  1  0
 37 54  1  0
 38 39  1  0
 39 40  1  0
 39 54  1  0
 40 42  2  3
 41 42  1  0
 43 49  1  0
M  END
$$$$

     RDKit          3D

 46 51  0  0  0  0  0  0  0  0999 V2000
  -30.7049    3.4566  -37.5976 C   0  0  0  0  0  0  0  0  0  0  0  0
  -30.0937    1.0820  -36.9802 C   0  0  0  0  0  0  0  0  0  0  0  0
  -29.7353    2.5639  -36.8210 C   0  0  0  0  0  0  0  0  0  0  0  0
  -29.8108    4.2537  -34.9062 C   0  0  0  0  0  0  0  0  0  0  0  0
  -29.6841    2.8707  -35.3087 C   0  0  0  0  0  0  0  0  0  0  0  0
  -29.4569    4.5748  -33.5227 C   0  0  0  0  0  0  0  0  0  0  0  0
  -28.6368    2.0408  -34.6541 C   0  0  0  0  0  0  0  0  0  0  0  0
  -28.3757    2.8828  -37.4789 C   0  0  0  0  0  0  0  0  0  0  0  0
  -28.4029    3.8384  -32.9135 C   0  0  0  0  0  0  0  0  0  0  0  0
  -27.9952    2.6070  -33.4148 C   0  0  0  0  0  0  0  0  0  0  0  0
  -27.9382   -1.9208  -32.0352 C   0  0  0  0  0  0  0  0  0  0  0  0
  -27.4515    4.0516  -31.8508 C   0  0  0  0  0  0  0  0  0  0  0  0
  -26.7164   -0.9979  -31.8901 C   0  0  0  0  0  0  0  0  0  0  0  0
  -26.7470    7.0453  -29.7695 C   0  0  0  0  0  0  0  0  0  0  0  0
  -26.6424    6.1236  -30.8418 C   0  0  0  0  0  0  0  0  0  0  0  0
  -26.1711    0.9388  -32.6605 C   0  0  0  0  0  0  0  0  0  0  0  0
  -26.1616    8.3256  -29.9332 C   0  0  0  0  0  0  0  0  0  0  0  0
  -25.7234    6.3996  -31.9029 C   0  0  0  0  0  0  0  0  0  0  0  0
  -25.5281    2.8365  -30.7565 C   0  0  0  0  0  0  0  0  0  0  0  0
  -25.2382   -0.6302  -33.8249 C   0  0  0  0  0  0  0  0  0  0  0  0
  -25.0354    7.6131  -31.8935 C   0  0  0  0  0  0  0  0  0  0  0  0
  -24.1202    2.6557  -31.2187 C   0  0  0  0  0  0  0  0  0  0  0  0
  -23.6565    2.9984  -32.5069 C   0  0  0  0  0  0  0  0  0  0  0  0
  -22.2758    2.7046  -32.8586 C   0  0  0  0  0  0  0  0  0  0  0  0
  -21.6789    2.9259  -34.1208 C   0  0  0  0  0  0  0  0  0  0  0  0
  -21.3522    2.1851  -31.9745 C   0  0  0  0  0  0  0  0  0  0  0  0
  -20.8669    0.3644  -28.7059 C   0  0  0  0  0  0  0  0  0  0  0  0
  -20.6419    0.9794  -29.9718 C   0  0  0  0  0  0  0  0  0  0  0  0
  -20.3197    2.5251  -33.9685 C   0  0  0  0  0  0  0  0  0  0  0  0
  -20.1355    2.0939  -32.6634 C   0  0  0  0  0  0  0  0  0  0  0  0
  -19.7930   -0.3077  -28.0520 C   0  0  0  0  0  0  0  0  0  0  0  0
  -19.3329    0.9214  -30.5316 C   0  0  0  0  0  0  0  0  0  0  0  0
  -18.4872   -0.3553  -28.6337 C   0  0  0  0  0  0  0  0  0  0  0  0
  -18.2711    0.2866  -29.8742 C   0  0  0  0  0  0  0  0  0  0  0  0
  -26.0412   -1.0230  -30.9100 O   0  0  0  0  0  0  0  0  0  0  0  0
  -24.3748    3.5673  -33.3752 O   0  0  0  0  0  0  0  0  0  0  0  0
  -27.5171    5.0797  -30.9280 N   0  0  0  0  0  0  0  0  0  0  0  0
  -26.9490    2.1026  -32.6152 N   0  0  0  0  0  0  0  0  0  0  0  0
  -26.5885    2.9923  -31.7523 N   0  0  0  0  0  0  0  0  0  0  0  0
  -26.4442   -0.2151  -32.9411 N   0  0  0  0  0  0  0  0  0  0  0  0
  -25.3902    8.5643  -31.0440 N   0  0  0  0  0  0  0  0  0  0  0  0
  -25.0627    0.2050  -33.0692 N   0  0  0  0  0  0  0  0  0  0  0  0
  -21.6488    1.7132  -30.7131 N   0  0  0  0  0  0  0  0  0  0  0  0
  -23.1112    1.9847  -30.0715 S   0  0  0  0  0  0  0  0  0  0  0  0
  -18.8132    1.6463  -31.9956 S   0  0  0  0  0  0  0  0  0  0  0  0
  -20.0060   -0.9110  -26.8493 F   0  0  0  0  0  0  0  0  0  0  0  0
  1  3  1  0
  2  3  1  0
  3  5  1  0
  3  8  1  0
  4  5  1  0
  4  6  1  0
  5  7  1  0
  6  9  1  0
  7 10  2  0
  9 10  1  0
  9 12  2  0
 10 38  1  0
 11 13  1  0
 12 37  1  0
 12 39  1  0
 13 35  2  0
 13 40  1  0
 14 15  1  0
 14 17  1  0
 15 18  1  0
 15 37  2  3
 16 38  1  0
 16 40  2  3
 16 42  1  0
 17 41  2  0
 18 21  2  0
 19 22  1  0
 19 39  1  0
 20 42  2  0
 21 41  1  0
 22 23  1  0
 22 44  1  0
 23 24  1  0
 23 36  2  0
 24 25  1  0
 24 26  2  0
 25 29  1  0
 26 30  1  0
 26 43  1  0
 27 28  2  0
 27 31  1  0
 28 32  1  0
 28 43  1  0
 29 30  1  0
 30 45  1  0
 31 33  2  0
 31 46  1  0
 32 34  2  0
 33 34  1  0
 38 39  1  0
 43 44  1  0
M  END
$$$$

     RDKit          3D

 53 60  0  0  0  0  0  0  0  0999 V2000
  -31.1213    0.5494  -35.6642 C   0  0  0  0  0  0  0  0  0  0  0  0
  -30.9764    1.8683  -35.2805 C   0  0  0  0  0  0  0  0  0  0  0  0
  -31.0510    4.5752  -33.9342 C   0  0  0  0  0  0  0  0  0  0  0  0
  -30.6710   -0.4896  -34.9359 C   0  0  0  0  0  0  0  0  0  0  0  0
  -30.3683    2.1520  -34.0749 C   0  0  0  0  0  0  0  0  0  0  0  0
  -30.1195   -0.2235  -33.6922 C   0  0  0  0  0  0  0  0  0  0  0  0
  -30.1954    3.5550  -33.6497 C   0  0  0  0  0  0  0  0  0  0  0  0
  -29.8740    1.0992  -33.3422 C   0  0  0  0  0  0  0  0  0  0  0  0
  -29.1268    4.1029  -32.8928 C   0  0  0  0  0  0  0  0  0  0  0  0
  -27.9413    3.3376  -32.3336 C   0  0  0  0  0  0  0  0  0  0  0  0
  -27.0577    2.8143  -35.3976 C   0  0  0  0  0  0  0  0  0  0  0  0
  -26.9364    3.0791  -36.7598 C   0  0  0  0  0  0  0  0  0  0  0  0
  -26.5786    3.3765  -32.9350 C   0  0  0  0  0  0  0  0  0  0  0  0
  -26.3858    3.5993  -34.4159 C   0  0  0  0  0  0  0  0  0  0  0  0
  -26.1302    4.1562  -37.1836 C   0  0  0  0  0  0  0  0  0  0  0  0
  -25.4769    4.5971  -34.9087 C   0  0  0  0  0  0  0  0  0  0  0  0
  -25.3491    1.1804  -32.8777 C   0  0  0  0  0  0  0  0  0  0  0  0
  -25.4008    4.8970  -36.2667 C   0  0  0  0  0  0  0  0  0  0  0  0
  -25.0515   -0.6175  -31.1317 C   0  0  0  0  0  0  0  0  0  0  0  0
  -25.0550    2.8709  -31.1164 C   0  0  0  0  0  0  0  0  0  0  0  0
  -24.4897    0.2847  -32.0920 C   0  0  0  0  0  0  0  0  0  0  0  0
  -24.6416    5.4154  -33.9077 C   0  0  0  0  0  0  0  0  0  0  0  0
  -23.2475    5.8386  -34.3474 C   0  0  0  0  0  0  0  0  0  0  0  0
  -23.0963    0.0310  -32.1736 C   0  0  0  0  0  0  0  0  0  0  0  0
  -22.9063   -1.0172  -31.2112 C   0  0  0  0  0  0  0  0  0  0  0  0
  -22.0794    3.5633  -33.7256 C   0  0  0  0  0  0  0  0  0  0  0  0
  -22.0552    4.9670  -34.1247 C   0  0  0  0  0  0  0  0  0  0  0  0
  -21.6853   -3.1072  -30.8654 C   0  0  0  0  0  0  0  0  0  0  0  0
  -21.6908   -1.7010  -30.9057 C   0  0  0  0  0  0  0  0  0  0  0  0
  -21.4706    2.7558  -27.1875 C   0  0  0  0  0  0  0  0  0  0  0  0
  -21.3883    1.3495  -27.1018 C   0  0  0  0  0  0  0  0  0  0  0  0
  -21.3185    3.4180  -28.3785 C   0  0  0  0  0  0  0  0  0  0  0  0
  -21.1384    0.6089  -28.2539 C   0  0  0  0  0  0  0  0  0  0  0  0
  -21.0736    2.6766  -29.5563 C   0  0  0  0  0  0  0  0  0  0  0  0
  -20.9279    1.2176  -29.4801 C   0  0  0  0  0  0  0  0  0  0  0  0
  -20.7378    2.4739  -31.9163 C   0  0  0  0  0  0  0  0  0  0  0  0
  -20.7109    3.0682  -33.2971 C   0  0  0  0  0  0  0  0  0  0  0  0
  -20.9430    3.2876  -30.8204 C   0  0  0  0  0  0  0  0  0  0  0  0
  -20.5155   -3.7850  -30.5399 C   0  0  0  0  0  0  0  0  0  0  0  0
  -20.5422   -0.9414  -30.6480 C   0  0  0  0  0  0  0  0  0  0  0  0
  -20.6607    0.5057  -30.6589 C   0  0  0  0  0  0  0  0  0  0  0  0
  -19.3555   -3.0612  -30.2861 C   0  0  0  0  0  0  0  0  0  0  0  0
  -19.3838   -1.6443  -30.3402 C   0  0  0  0  0  0  0  0  0  0  0  0
  -26.2535   -0.7642  -30.9115 O   0  0  0  0  0  0  0  0  0  0  0  0
  -25.8069    0.6280  -33.8938 O   0  0  0  0  0  0  0  0  0  0  0  0
  -25.4018    6.2845  -33.2993 O   0  0  0  0  0  0  0  0  0  0  0  0
  -22.9670    2.7759  -33.8601 O   0  0  0  0  0  0  0  0  0  0  0  0
  -30.5583    5.6860  -33.3813 N   0  0  0  0  0  0  0  0  0  0  0  0
  -29.4172    5.3908  -32.7785 N   0  0  0  0  0  0  0  0  0  0  0  0
  -25.6631    2.4272  -32.3621 N   0  0  0  0  0  0  0  0  0  0  0  0
  -24.0673   -1.3521  -30.6127 N   0  0  0  0  0  0  0  0  0  0  0  0
  -20.5917    1.1398  -31.8283 N   0  0  0  0  0  0  0  0  0  0  0  0
  -20.3498   -5.8317  -30.4655 Cl  0  0  0  0  0  0  0  0  0  0  0  0
  1  2  1  0
  1  4  2  0
  2  5  1  0
  3  7  1  0
  3 48  1  0
  4  6  1  0
  5  7  1  0
  5  8  2  0
  6  8  1  0
  7  9  2  0
  9 10  1  0
  9 49  1  0
 10 13  1  0
 11 12  2  0
 11 14  1  0
 12 15  1  0
 13 14  1  0
 13 50  1  0
 14 16  2  0
 15 18  2  0
 16 18  1  0
 16 22  1  0
 17 21  1  0
 17 45  2  0
 17 50  1  0
 19 21  1  0
 19 44  2  0
 19 51  1  0
 20 50  1  0
 21 24  1  0
 22 23  1  0
 22 46  1  0
 23 27  2  3
 24 25  1  0
 25 29  1  0
 25 51  1  0
 26 27  1  0
 26 37  1  0
 26 47  2  0
 28 29  1  0
 28 39  2  0
 29 40  1  0
 30 31  1  0
 30 32  2  0
 31 33  1  0
 32 34  1  0
 33 35  2  0
 34 35  1  0
 34 38  1  0
 35 41  1  0
 36 37  1  0
 36 38  2  0
 36 52  1  0
 39 42  1  0
 39 53  1  0
 40 41  1  0
 40 43  2  0
 41 52  2  0
 42 43  1  0
 48 49  1  0
M  END
$$$$

     RDKit          3D

 41 45  0  0  0  0  0  0  0  0999 V2000
  -31.0209    1.6056  -33.9192 C   0  0  0  0  0  0  0  0  0  0  0  0
  -30.8008    2.8943  -34.4912 C   0  0  0  0  0  0  0  0  0  0  0  0
  -29.4527    3.3323  -34.6629 C   0  0  0  0  0  0  0  0  0  0  0  0
  -28.6919    1.1651  -33.8618 C   0  0  0  0  0  0  0  0  0  0  0  0
  -28.3834    2.4529  -34.3125 C   0  0  0  0  0  0  0  0  0  0  0  0
  -27.9231   -1.1688  -33.3628 C   0  0  0  0  0  0  0  0  0  0  0  0
  -26.9008    4.7627  -30.8813 C   0  0  0  0  0  0  0  0  0  0  0  0
  -26.3447    0.7473  -33.6081 C   0  0  0  0  0  0  0  0  0  0  0  0
  -26.0583    2.0288  -34.1356 C   0  0  0  0  0  0  0  0  0  0  0  0
  -25.6816    3.8969  -30.5434 C   0  0  0  0  0  0  0  0  0  0  0  0
  -25.2543   -0.1356  -33.1887 C   0  0  0  0  0  0  0  0  0  0  0  0
  -24.7767   -0.2348  -31.8508 C   0  0  0  0  0  0  0  0  0  0  0  0
  -24.6955    2.5117  -34.4548 C   0  0  0  0  0  0  0  0  0  0  0  0
  -24.4858    4.1691  -31.4544 C   0  0  0  0  0  0  0  0  0  0  0  0
  -24.1756    3.6355  -33.8055 C   0  0  0  0  0  0  0  0  0  0  0  0
  -23.9262    1.8874  -35.4670 C   0  0  0  0  0  0  0  0  0  0  0  0
  -23.3144   -0.5085  -31.8324 C   0  0  0  0  0  0  0  0  0  0  0  0
  -22.9279    4.1644  -34.1234 C   0  0  0  0  0  0  0  0  0  0  0  0
  -22.6955   -0.2852  -30.4493 C   0  0  0  0  0  0  0  0  0  0  0  0
  -22.6657    2.4191  -35.8029 C   0  0  0  0  0  0  0  0  0  0  0  0
  -22.6484    6.1060  -27.8486 C   0  0  0  0  0  0  0  0  0  0  0  0
  -22.2115    3.8310  -28.7712 C   0  0  0  0  0  0  0  0  0  0  0  0
  -22.1860    3.5619  -35.1260 C   0  0  0  0  0  0  0  0  0  0  0  0
  -21.9793    4.1277  -26.5009 C   0  0  0  0  0  0  0  0  0  0  0  0
  -21.7299    1.7760  -36.7821 C   0  0  0  0  0  0  0  0  0  0  0  0
  -21.7799    2.6132  -28.2373 C   0  0  0  0  0  0  0  0  0  0  0  0
  -21.6194    1.3058  -28.8083 C   0  0  0  0  0  0  0  0  0  0  0  0
  -21.6046    2.8031  -26.8486 C   0  0  0  0  0  0  0  0  0  0  0  0
  -21.0354    0.3442  -27.9585 C   0  0  0  0  0  0  0  0  0  0  0  0
  -21.1334    1.7831  -26.0222 C   0  0  0  0  0  0  0  0  0  0  0  0
  -20.8628    0.5742  -26.6074 C   0  0  0  0  0  0  0  0  0  0  0  0
  -26.1072    2.6186  -30.7830 O   0  0  0  0  0  0  0  0  0  0  0  0
  -25.4695   -0.1672  -30.8554 O   0  0  0  0  0  0  0  0  0  0  0  0
  -24.9222    4.2251  -32.7955 O   0  0  0  0  0  0  0  0  0  0  0  0
  -22.0105    4.6971  -25.4014 O   0  0  0  0  0  0  0  0  0  0  0  0
  -21.5316    1.4483  -31.2812 O   0  0  0  0  0  0  0  0  0  0  0  0
  -29.9685    0.7407  -33.7099 N   0  0  0  0  0  0  0  0  0  0  0  0
  -27.6545    0.2782  -33.6014 N   0  0  0  0  0  0  0  0  0  0  0  0
  -27.1063    2.8681  -34.4038 N   0  0  0  0  0  0  0  0  0  0  0  0
  -22.3019    4.7185  -27.6933 N   0  0  0  0  0  0  0  0  0  0  0  0
  -22.0191    0.9843  -30.1192 N   0  0  0  0  0  0  0  0  0  0  0  0
  1  2  2  0
  1 37  1  0
  2  3  1  0
  3  5  1  0
  4  5  1  0
  4 37  2  0
  4 38  1  0
  5 39  2  0
  6 38  1  0
  7 10  1  0
  8  9  2  0
  8 11  1  0
  8 38  1  0
  9 13  1  0
  9 39  1  0
 10 14  1  0
 10 32  1  0
 11 12  1  0
 12 17  1  0
 12 33  2  0
 13 15  2  0
 13 16  1  0
 14 34  1  0
 15 18  1  0
 15 34  1  0
 16 20  2  0
 17 19  1  0
 18 23  2  0
 19 41  1  0
 20 23  1  0
 20 25  1  0
 21 40  1  0
 22 26  1  0
 22 40  1  0
 24 28  1  0
 24 35  2  0
 24 40  1  0
 26 27  2  0
 26 28  1  0
 27 29  1  0
 27 41  1  0
 28 30  2  0
 29 31  2  0
 30 31  1  0
 36 41  1  0
M  END
$$$$

     RDKit          3D

 39 45  0  0  0  0  0  0  0  0999 V2000
  -32.5979    0.7125  -34.3948 C   0  0  0  0  0  0  0  0  0  0  0  0
  -30.4715   -0.3768  -33.7103 C   0  0  0  0  0  0  0  0  0  0  0  0
  -30.5613    1.9846  -33.7708 C   0  0  0  0  0  0  0  0  0  0  0  0
  -29.2123    2.0576  -33.3803 C   0  0  0  0  0  0  0  0  0  0  0  0
  -29.1482   -0.3332  -33.3616 C   0  0  0  0  0  0  0  0  0  0  0  0
  -28.4903    0.9060  -33.2278 C   0  0  0  0  0  0  0  0  0  0  0  0
  -27.0712    0.9364  -32.9210 C   0  0  0  0  0  0  0  0  0  0  0  0
  -25.3382   -0.2903  -32.0564 C   0  0  0  0  0  0  0  0  0  0  0  0
  -25.0068    2.0046  -32.6320 C   0  0  0  0  0  0  0  0  0  0  0  0
  -24.9361   -1.5168  -31.6271 C   0  0  0  0  0  0  0  0  0  0  0  0
  -24.4750    0.8006  -32.1155 C   0  0  0  0  0  0  0  0  0  0  0  0
  -23.7982    2.4613  -35.4171 C   0  0  0  0  0  0  0  0  0  0  0  0
  -23.6652   -1.6522  -31.1629 C   0  0  0  0  0  0  0  0  0  0  0  0
  -23.5907    1.9655  -36.7111 C   0  0  0  0  0  0  0  0  0  0  0  0
  -23.1548    0.6205  -31.6517 C   0  0  0  0  0  0  0  0  0  0  0  0
  -22.7590   -0.6030  -31.2355 C   0  0  0  0  0  0  0  0  0  0  0  0
  -22.9089    3.1897  -33.2120 C   0  0  0  0  0  0  0  0  0  0  0  0
  -22.8328    6.2746  -29.8130 C   0  0  0  0  0  0  0  0  0  0  0  0
  -22.6999    2.7352  -34.5394 C   0  0  0  0  0  0  0  0  0  0  0  0
  -22.6519    5.3717  -26.2707 C   0  0  0  0  0  0  0  0  0  0  0  0
  -22.5819    5.5188  -28.6323 C   0  0  0  0  0  0  0  0  0  0  0  0
  -22.5718    5.7242  -31.0777 C   0  0  0  0  0  0  0  0  0  0  0  0
  -22.3026    1.7356  -37.1088 C   0  0  0  0  0  0  0  0  0  0  0  0
  -22.1403    4.1984  -28.7853 C   0  0  0  0  0  0  0  0  0  0  0  0
  -22.0152    3.9961  -26.3889 C   0  0  0  0  0  0  0  0  0  0  0  0
  -22.1029    4.4189  -31.1940 C   0  0  0  0  0  0  0  0  0  0  0  0
  -21.8618    3.6987  -30.0794 C   0  0  0  0  0  0  0  0  0  0  0  0
  -21.8547    3.7472  -32.4764 C   0  0  0  0  0  0  0  0  0  0  0  0
  -21.4789    2.0526  -27.8391 C   0  0  0  0  0  0  0  0  0  0  0  0
  -21.3830    2.5793  -35.0308 C   0  0  0  0  0  0  0  0  0  0  0  0
  -21.2030    2.0416  -36.3049 C   0  0  0  0  0  0  0  0  0  0  0  0
  -20.5222    3.5908  -32.9393 C   0  0  0  0  0  0  0  0  0  0  0  0
  -20.2824    2.9962  -34.1893 C   0  0  0  0  0  0  0  0  0  0  0  0
  -22.7740    6.1102  -27.4209 O   0  0  0  0  0  0  0  0  0  0  0  0
  -31.1901    0.7625  -33.9297 N   0  0  0  0  0  0  0  0  0  0  0  0
  -26.5918   -0.2276  -32.5351 N   0  0  0  0  0  0  0  0  0  0  0  0
  -26.3212    2.0506  -33.0017 N   0  0  0  0  0  0  0  0  0  0  0  0
  -24.2249    3.1668  -32.7127 N   0  0  0  0  0  0  0  0  0  0  0  0
  -21.9327    3.4237  -27.6924 N   0  0  0  0  0  0  0  0  0  0  0  0
  1 35  1  0
  2  5  2  0
  2 35  1  0
  3  4  1  0
  3 35  1  0
  4  6  2  0
  5  6  1  0
  6  7  1  0
  7 36  2  0
  7 37  1  0
  8 10  2  0
  8 11  1  0
  8 36  1  0
  9 11  1  0
  9 37  2  0
  9 38  1  0
 10 13  1  0
 11 15  1  0
 12 14  2  0
 12 19  1  0
 13 16  1  0
 14 23  1  0
 15 16  2  0
 17 19  2  0
 17 28  1  0
 17 38  1  0
 18 21  2  0
 18 22  1  0
 19 30  1  0
 20 25  1  0
 20 34  1  0
 21 24  1  0
 21 34  1  0
 22 26  2  0
 23 31  2  0
 24 27  2  0
 24 39  1  0
 25 39  1  0
 26 27  1  0
 26 28  1  0
 28 32  2  0
 29 39  1  0
 30 31  1  0
 30 33  2  0
 32 33  1  0
M  END
$$$$

     RDKit          3D

 54 60  0  0  0  0  0  0  0  0999 V2000
  -30.3546    7.0421  -31.6827 C   0  0  0  0  0  0  0  0  0  0  0  0
  -29.4774    6.7255  -30.6413 C   0  0  0  0  0  0  0  0  0  0  0  0
  -29.0471    5.1843  -34.6779 C   0  0  0  0  0  0  0  0  0  0  0  0
  -29.1001    5.8256  -33.3209 C   0  0  0  0  0  0  0  0  0  0  0  0
  -28.6402   -1.1978  -32.6458 C   0  0  0  0  0  0  0  0  0  0  0  0
  -28.6303   -0.0287  -33.3870 C   0  0  0  0  0  0  0  0  0  0  0  0
  -28.5000    3.5035  -38.4440 C   0  0  0  0  0  0  0  0  0  0  0  0
  -28.2384    5.4221  -32.2488 C   0  0  0  0  0  0  0  0  0  0  0  0
  -28.4291    5.8145  -30.9215 C   0  0  0  0  0  0  0  0  0  0  0  0
  -28.1157    4.5789  -35.4788 C   0  0  0  0  0  0  0  0  0  0  0  0
  -27.5170   -1.5678  -31.9465 C   0  0  0  0  0  0  0  0  0  0  0  0
  -27.4983    0.7616  -33.4013 C   0  0  0  0  0  0  0  0  0  0  0  0
  -26.9728    3.5918  -38.3934 C   0  0  0  0  0  0  0  0  0  0  0  0
  -26.9659    3.7197  -35.7502 C   0  0  0  0  0  0  0  0  0  0  0  0
  -26.6890    2.3514  -35.0788 C   0  0  0  0  0  0  0  0  0  0  0  0
  -26.3468   -0.8030  -31.9212 C   0  0  0  0  0  0  0  0  0  0  0  0
  -26.3589    0.4110  -32.6587 C   0  0  0  0  0  0  0  0  0  0  0  0
  -25.9548    5.3520  -32.6611 C   0  0  0  0  0  0  0  0  0  0  0  0
  -25.2208   -1.4148  -31.1654 C   0  0  0  0  0  0  0  0  0  0  0  0
  -24.9597    3.8174  -37.1305 C   0  0  0  0  0  0  0  0  0  0  0  0
  -24.8756    4.4699  -32.1201 C   0  0  0  0  0  0  0  0  0  0  0  0
  -24.3238    6.4059  -30.5730 C   0  0  0  0  0  0  0  0  0  0  0  0
  -23.9174    5.2483  -31.2856 C   0  0  0  0  0  0  0  0  0  0  0  0
  -23.2808    0.1545  -31.9071 C   0  0  0  0  0  0  0  0  0  0  0  0
  -23.3674    6.9251  -29.5804 C   0  0  0  0  0  0  0  0  0  0  0  0
  -22.7226   -1.5823  -30.5639 C   0  0  0  0  0  0  0  0  0  0  0  0
  -22.7010    4.5873  -30.9699 C   0  0  0  0  0  0  0  0  0  0  0  0
  -22.4301    3.3116  -31.4634 C   0  0  0  0  0  0  0  0  0  0  0  0
  -21.9467    0.3076  -31.4651 C   0  0  0  0  0  0  0  0  0  0  0  0
  -21.7941    5.2622  -30.1643 C   0  0  0  0  0  0  0  0  0  0  0  0
  -21.2383    2.6848  -31.1850 C   0  0  0  0  0  0  0  0  0  0  0  0
  -20.7465    0.3125  -27.9346 C   0  0  0  0  0  0  0  0  0  0  0  0
  -20.7462    0.5788  -26.6102 C   0  0  0  0  0  0  0  0  0  0  0  0
  -20.6127    4.6194  -29.8554 C   0  0  0  0  0  0  0  0  0  0  0  0
  -20.3173    3.3692  -30.3562 C   0  0  0  0  0  0  0  0  0  0  0  0
  -19.9988   -0.7153  -28.4503 C   0  0  0  0  0  0  0  0  0  0  0  0
  -20.0015   -0.2102  -25.6803 C   0  0  0  0  0  0  0  0  0  0  0  0
  -19.2607   -1.5512  -27.5855 C   0  0  0  0  0  0  0  0  0  0  0  0
  -19.2566   -1.2887  -26.2084 C   0  0  0  0  0  0  0  0  0  0  0  0
  -25.7363    6.4638  -33.2287 O   0  0  0  0  0  0  0  0  0  0  0  0
  -25.5617    1.8206  -35.1913 O   0  0  0  0  0  0  0  0  0  0  0  0
  -23.9112    0.7408  -32.8226 O   0  0  0  0  0  0  0  0  0  0  0  0
  -22.7745   -2.6867  -29.9573 O   0  0  0  0  0  0  0  0  0  0  0  0
  -22.0238    6.5316  -29.7295 O   0  0  0  0  0  0  0  0  0  0  0  0
  -20.9956    1.3611  -31.6863 O   0  0  0  0  0  0  0  0  0  0  0  0
  -30.1992    6.5625  -32.9579 N   0  0  0  0  0  0  0  0  0  0  0  0
  -27.6269    1.9173  -34.2181 N   0  0  0  0  0  0  0  0  0  0  0  0
  -27.1327    4.7055  -32.5503 N   0  0  0  0  0  0  0  0  0  0  0  0
  -26.4140    3.7477  -37.1180 N   0  0  0  0  0  0  0  0  0  0  0  0
  -23.8109   -0.9880  -31.2833 N   0  0  0  0  0  0  0  0  0  0  0  0
  -21.6408   -0.7787  -30.7180 N   0  0  0  0  0  0  0  0  0  0  0  0
  -20.0123   -0.9600  -30.1413 S   0  0  0  0  0  0  0  0  0  0  0  0
  -19.4251   -2.6883  -30.4878 Cl  0  0  0  0  0  0  0  0  0  0  0  0
  -18.5266   -2.3404  -25.2325 Cl  0  0  0  0  0  0  0  0  0  0  0  0
  1  2  1  0
  1 46  2  0
  2  9  1  0
  3  4  1  0
  3 10  1  0
  4  8  1  0
  4 46  1  0
  5  6  1  0
  5 11  2  0
  6 12  2  0
  7 13  1  0
  8  9  2  0
  8 48  1  0
 10 14  1  0
 11 16  1  0
 12 17  1  0
 12 47  1  0
 13 49  1  0
 14 15  1  0
 14 49  1  0
 15 41  2  0
 15 47  1  0
 16 17  2  0
 16 19  1  0
 18 21  1  0
 18 40  2  0
 18 48  1  0
 19 50  1  0
 20 49  1  0
 21 23  1  0
 22 23  1  0
 22 25  1  0
 23 27  2  0
 24 29  1  0
 24 42  2  0
 24 50  1  0
 25 44  1  0
 26 43  2  0
 26 50  1  0
 26 51  1  0
 27 28  1  0
 27 30  1  0
 28 31  2  0
 29 45  1  0
 29 51  1  0
 30 34  2  0
 30 44  1  0
 31 35  1  0
 31 45  1  0
 32 33  2  0
 32 36  1  0
 33 37  1  0
 34 35  1  0
 36 38  2  0
 36 52  1  0
 37 39  2  0
 38 39  1  0
 39 54  1  0
 51 52  1  0
 52 53  1  0
M  END
$$$$

     RDKit          3D

 38 42  0  0  0  0  0  0  0  0999 V2000
  -30.7936    3.9809  -33.3085 C   0  0  0  0  0  0  0  0  0  0  0  0
  -29.9560    3.5113  -35.3114 C   0  0  0  0  0  0  0  0  0  0  0  0
  -29.4196    3.8027  -33.1853 C   0  0  0  0  0  0  0  0  0  0  0  0
  -28.6406    4.4817  -32.1510 C   0  0  0  0  0  0  0  0  0  0  0  0
  -27.8660    0.7115  -33.4279 C   0  0  0  0  0  0  0  0  0  0  0  0
  -27.5890    2.9692  -34.8052 C   0  0  0  0  0  0  0  0  0  0  0  0
  -27.0348   -0.4157  -33.1172 C   0  0  0  0  0  0  0  0  0  0  0  0
  -27.1892    1.5850  -34.2665 C   0  0  0  0  0  0  0  0  0  0  0  0
  -26.6145    4.6735  -31.0278 C   0  0  0  0  0  0  0  0  0  0  0  0
  -25.8348   -0.1898  -33.8403 C   0  0  0  0  0  0  0  0  0  0  0  0
  -25.9429    1.0593  -34.5460 C   0  0  0  0  0  0  0  0  0  0  0  0
  -25.8744    6.6353  -29.9215 C   0  0  0  0  0  0  0  0  0  0  0  0
  -25.2191    2.6408  -31.0177 C   0  0  0  0  0  0  0  0  0  0  0  0
  -25.4404    4.0619  -30.7158 C   0  0  0  0  0  0  0  0  0  0  0  0
  -24.4518    4.7986  -30.0427 C   0  0  0  0  0  0  0  0  0  0  0  0
  -23.9133    2.1659  -31.6733 C   0  0  0  0  0  0  0  0  0  0  0  0
  -22.9496    1.6830  -30.6161 C   0  0  0  0  0  0  0  0  0  0  0  0
  -22.0420    2.7501  -33.0277 C   0  0  0  0  0  0  0  0  0  0  0  0
  -21.6151    3.2123  -34.2956 C   0  0  0  0  0  0  0  0  0  0  0  0
  -21.1515    2.0370  -32.1983 C   0  0  0  0  0  0  0  0  0  0  0  0
  -20.7309    0.8375  -30.1446 C   0  0  0  0  0  0  0  0  0  0  0  0
  -20.3221    3.0470  -34.6730 C   0  0  0  0  0  0  0  0  0  0  0  0
  -19.8109    1.8884  -32.6114 C   0  0  0  0  0  0  0  0  0  0  0  0
  -19.3906    0.6049  -30.5581 C   0  0  0  0  0  0  0  0  0  0  0  0
  -19.4140    2.3904  -33.8684 C   0  0  0  0  0  0  0  0  0  0  0  0
  -18.8563   -0.7907  -28.4935 C   0  0  0  0  0  0  0  0  0  0  0  0
  -18.8998    1.1997  -31.7542 C   0  0  0  0  0  0  0  0  0  0  0  0
  -18.4997   -0.2863  -29.7859 C   0  0  0  0  0  0  0  0  0  0  0  0
  -26.0480    1.8505  -30.7124 O   0  0  0  0  0  0  0  0  0  0  0  0
  -24.7127    6.0171  -29.6868 O   0  0  0  0  0  0  0  0  0  0  0  0
  -23.3416    1.2374  -29.5892 O   0  0  0  0  0  0  0  0  0  0  0  0
  -23.2804    4.3633  -29.8225 O   0  0  0  0  0  0  0  0  0  0  0  0
  -31.0754    3.7542  -34.6148 N   0  0  0  0  0  0  0  0  0  0  0  0
  -28.9170    3.4022  -34.4248 N   0  0  0  0  0  0  0  0  0  0  0  0
  -27.4972    3.9978  -31.8238 N   0  0  0  0  0  0  0  0  0  0  0  0
  -26.8273    5.8305  -30.6548 N   0  0  0  0  0  0  0  0  0  0  0  0
  -23.3492    3.0193  -32.6457 N   0  0  0  0  0  0  0  0  0  0  0  0
  -21.6179    1.5271  -31.0284 N   0  0  0  0  0  0  0  0  0  0  0  0
  1  3  1  0
  1 33  1  0
  2 33  1  0
  2 34  1  0
  3  4  1  0
  3 34  1  0
  4 35  1  0
  5  7  1  0
  5  8  1  0
  6  8  1  0
  6 34  1  0
  7 10  1  0
  8 11  1  0
  9 14  1  0
  9 35  2  3
  9 36  1  0
 10 11  1  0
 12 30  1  0
 13 14  1  0
 13 16  1  0
 13 29  2  0
 14 15  1  0
 15 30  1  0
 15 32  2  0
 16 17  1  0
 16 37  1  0
 17 31  2  0
 17 38  1  0
 18 19  1  0
 18 20  1  0
 18 37  1  0
 19 22  2  0
 20 23  2  0
 20 38  1  0
 21 24  1  0
 21 38  1  0
 22 25  1  0
 23 25  1  0
 23 27  1  0
 24 27  2  0
 24 28  1  0
 26 28  1  0
M  END
$$$$

     RDKit          3D

 44 50  0  0  0  0  0  0  0  0999 V2000
  -30.8675    5.2085  -32.8964 C   0  0  0  0  0  0  0  0  0  0  0  0
  -30.3873    2.8025  -33.2164 C   0  0  0  0  0  0  0  0  0  0  0  0
  -29.9757    4.1701  -32.8414 C   0  0  0  0  0  0  0  0  0  0  0  0
  -28.7390    4.6711  -32.3912 C   0  0  0  0  0  0  0  0  0  0  0  0
  -27.8715    2.8606  -36.7391 C   0  0  0  0  0  0  0  0  0  0  0  0
  -27.6599    2.6286  -35.3952 C   0  0  0  0  0  0  0  0  0  0  0  0
  -27.4676    3.8891  -32.1986 C   0  0  0  0  0  0  0  0  0  0  0  0
  -27.6194    4.2319  -38.7863 C   0  0  0  0  0  0  0  0  0  0  0  0
  -27.2874    3.9598  -37.3255 C   0  0  0  0  0  0  0  0  0  0  0  0
  -26.8826    3.5321  -34.6376 C   0  0  0  0  0  0  0  0  0  0  0  0
  -26.6984    3.2774  -33.1866 C   0  0  0  0  0  0  0  0  0  0  0  0
  -26.2697    4.5934  -35.3326 C   0  0  0  0  0  0  0  0  0  0  0  0
  -25.9787    2.6576  -31.1643 C   0  0  0  0  0  0  0  0  0  0  0  0
  -25.7828    2.4316  -32.5532 C   0  0  0  0  0  0  0  0  0  0  0  0
  -24.7791   -0.4948  -31.1627 C   0  0  0  0  0  0  0  0  0  0  0  0
  -24.8660    1.3767  -33.1311 C   0  0  0  0  0  0  0  0  0  0  0  0
  -24.1921    0.3075  -32.1794 C   0  0  0  0  0  0  0  0  0  0  0  0
  -21.7723    4.5430  -28.5068 C   0  0  0  0  0  0  0  0  0  0  0  0
  -21.5421    2.5390  -27.1346 C   0  0  0  0  0  0  0  0  0  0  0  0
  -21.4793    3.1769  -28.3760 C   0  0  0  0  0  0  0  0  0  0  0  0
  -21.6081    5.1665  -29.7207 C   0  0  0  0  0  0  0  0  0  0  0  0
  -21.3578   -2.9841  -30.7958 C   0  0  0  0  0  0  0  0  0  0  0  0
  -21.3772   -1.5619  -30.8091 C   0  0  0  0  0  0  0  0  0  0  0  0
  -21.1424    1.2105  -27.0159 C   0  0  0  0  0  0  0  0  0  0  0  0
  -21.1018    2.4671  -29.5301 C   0  0  0  0  0  0  0  0  0  0  0  0
  -21.1972    4.4774  -30.8433 C   0  0  0  0  0  0  0  0  0  0  0  0
  -20.7757    0.5029  -28.1541 C   0  0  0  0  0  0  0  0  0  0  0  0
  -20.7244    1.1245  -29.3881 C   0  0  0  0  0  0  0  0  0  0  0  0
  -20.9508    3.1239  -30.7852 C   0  0  0  0  0  0  0  0  0  0  0  0
  -20.2762   -5.1915  -30.5862 C   0  0  0  0  0  0  0  0  0  0  0  0
  -20.1991   -3.6341  -30.5112 C   0  0  0  0  0  0  0  0  0  0  0  0
  -20.2016   -0.8892  -30.5159 C   0  0  0  0  0  0  0  0  0  0  0  0
  -19.0156   -2.9899  -30.1960 C   0  0  0  0  0  0  0  0  0  0  0  0
  -19.0164   -1.5910  -30.2029 C   0  0  0  0  0  0  0  0  0  0  0  0
  -28.8982    3.9935  -39.1051 O   0  0  0  0  0  0  0  0  0  0  0  0
  -25.9751   -0.6981  -30.8686 O   0  0  0  0  0  0  0  0  0  0  0  0
  -30.1867    6.2797  -32.5616 N   0  0  0  0  0  0  0  0  0  0  0  0
  -28.9123    5.9783  -32.3034 N   0  0  0  0  0  0  0  0  0  0  0  0
  -26.9740    3.5248  -30.9976 N   0  0  0  0  0  0  0  0  0  0  0  0
  -26.4793    4.7796  -36.6426 N   0  0  0  0  0  0  0  0  0  0  0  0
  -23.7587   -1.0850  -30.5385 N   0  0  0  0  0  0  0  0  0  0  0  0
  -22.9024    0.0749  -32.1838 N   0  0  0  0  0  0  0  0  0  0  0  0
  -22.5923   -0.8490  -31.1397 N   0  0  0  0  0  0  0  0  0  0  0  0
  -20.2408    0.4639  -30.4955 N   0  0  0  0  0  0  0  0  0  0  0  0
  1  3  1  0
  1 37  1  0
  2  3  1  0
  3  4  2  0
  4  7  1  0
  4 38  1  0
  5  6  2  0
  5  9  1  0
  6 10  1  0
  7 11  2  0
  7 39  1  0
  8  9  1  0
  8 35  1  0
  9 40  2  0
 10 11  1  0
 10 12  2  0
 11 14  1  0
 12 40  1  0
 13 14  1  0
 13 39  1  0
 14 16  2  3
 15 17  1  0
 15 36  2  0
 15 41  1  0
 16 17  1  0
 17 42  1  0
 18 20  2  0
 18 21  1  0
 19 20  1  0
 19 24  2  0
 20 25  1  0
 21 26  2  0
 22 23  2  0
 22 31  1  0
 23 32  1  0
 23 43  1  0
 24 27  1  0
 25 28  1  0
 25 29  2  0
 26 29  1  0
 27 28  2  0
 28 44  1  0
 30 31  1  0
 31 33  2  0
 32 34  2  0
 32 44  1  0
 33 34  1  0
 37 38  1  0
 41 43  1  0
 42 43  1  0
M  END
$$$$

     RDKit          3D

 43 48  0  0  0  0  0  0  0  0999 V2000
  -31.3917    0.1956  -33.7004 C   0  0  0  0  0  0  0  0  0  0  0  0
  -31.3162    1.5455  -33.9041 C   0  0  0  0  0  0  0  0  0  0  0  0
  -31.3406    5.7391  -33.7843 C   0  0  0  0  0  0  0  0  0  0  0  0
  -30.9535    4.3597  -33.3202 C   0  0  0  0  0  0  0  0  0  0  0  0
  -30.2117   -0.5477  -33.6272 C   0  0  0  0  0  0  0  0  0  0  0  0
  -30.4001    7.8312  -34.5250 C   0  0  0  0  0  0  0  0  0  0  0  0
  -30.0755    2.2038  -34.0339 C   0  0  0  0  0  0  0  0  0  0  0  0
  -29.7973    4.2112  -35.4857 C   0  0  0  0  0  0  0  0  0  0  0  0
  -29.5322    5.7001  -35.3795 C   0  0  0  0  0  0  0  0  0  0  0  0
  -28.9486    0.0616  -33.7928 C   0  0  0  0  0  0  0  0  0  0  0  0
  -28.8611    1.4684  -33.9319 C   0  0  0  0  0  0  0  0  0  0  0  0
  -27.8015   -0.7611  -33.7761 C   0  0  0  0  0  0  0  0  0  0  0  0
  -27.5513    2.0227  -34.0771 C   0  0  0  0  0  0  0  0  0  0  0  0
  -26.5552   -0.1672  -33.8957 C   0  0  0  0  0  0  0  0  0  0  0  0
  -26.4243    1.2137  -34.0741 C   0  0  0  0  0  0  0  0  0  0  0  0
  -25.0347    1.7461  -34.2236 C   0  0  0  0  0  0  0  0  0  0  0  0
  -24.8575    1.1086  -31.0451 C   0  0  0  0  0  0  0  0  0  0  0  0
  -23.9284    0.9733  -33.4973 C   0  0  0  0  0  0  0  0  0  0  0  0
  -23.5353   -1.4477  -30.7637 C   0  0  0  0  0  0  0  0  0  0  0  0
  -23.5799    0.8748  -31.7931 C   0  0  0  0  0  0  0  0  0  0  0  0
  -23.2497    3.5347  -29.9494 C   0  0  0  0  0  0  0  0  0  0  0  0
  -22.9630   -2.6383  -30.3919 C   0  0  0  0  0  0  0  0  0  0  0  0
  -23.1061    4.1211  -28.6769 C   0  0  0  0  0  0  0  0  0  0  0  0
  -22.7601   -0.4516  -31.2691 C   0  0  0  0  0  0  0  0  0  0  0  0
  -22.6190    1.5116  -33.9143 C   0  0  0  0  0  0  0  0  0  0  0  0
  -22.3770    2.5262  -30.3581 C   0  0  0  0  0  0  0  0  0  0  0  0
  -22.1687    2.3653  -32.8223 C   0  0  0  0  0  0  0  0  0  0  0  0
  -22.1185    3.6494  -27.8157 C   0  0  0  0  0  0  0  0  0  0  0  0
  -21.9986    4.0782  -26.4286 C   0  0  0  0  0  0  0  0  0  0  0  0
  -21.5805   -2.8122  -30.5105 C   0  0  0  0  0  0  0  0  0  0  0  0
  -21.3478   -0.5793  -31.3544 C   0  0  0  0  0  0  0  0  0  0  0  0
  -21.3133    2.1102  -29.5488 C   0  0  0  0  0  0  0  0  0  0  0  0
  -21.1749    2.7098  -28.3152 C   0  0  0  0  0  0  0  0  0  0  0  0
  -20.9759    3.4273  -25.5647 C   0  0  0  0  0  0  0  0  0  0  0  0
  -20.7674   -1.7978  -31.0075 C   0  0  0  0  0  0  0  0  0  0  0  0
  -20.0969   -4.7990  -30.8428 C   0  0  0  0  0  0  0  0  0  0  0  0
  -24.8174    2.7794  -34.8624 O   0  0  0  0  0  0  0  0  0  0  0  0
  -22.6458    5.0742  -25.9784 O   0  0  0  0  0  0  0  0  0  0  0  0
  -21.3331    3.2503  -32.8954 O   0  0  0  0  0  0  0  0  0  0  0  0
  -21.1333   -4.1094  -30.1433 O   0  0  0  0  0  0  0  0  0  0  0  0
  -30.1191    3.6115  -34.2269 N   0  0  0  0  0  0  0  0  0  0  0  0
  -30.1303    6.4040  -34.2258 N   0  0  0  0  0  0  0  0  0  0  0  0
  -22.6873    1.9186  -31.6358 N   0  0  0  0  0  0  0  0  0  0  0  0
  1  2  2  0
  1  5  1  0
  2  7  1  0
  3  4  1  0
  3 42  1  0
  4 41  1  0
  5 10  2  0
  6 42  1  0
  7 11  2  0
  7 41  1  0
  8  9  1  0
  8 41  1  0
  9 42  1  0
 10 11  1  0
 10 12  1  0
 11 13  1  0
 12 14  2  0
 13 15  2  0
 14 15  1  0
 15 16  1  0
 16 18  1  0
 16 37  2  0
 17 20  1  0
 18 20  1  0
 18 25  1  0
 19 22  2  0
 19 24  1  0
 20 24  1  0
 20 43  1  0
 21 23  2  0
 21 26  1  0
 22 30  1  0
 23 28  1  0
 24 31  2  0
 25 27  1  0
 26 32  2  0
 26 43  1  0
 27 39  1  0
 27 43  1  0
 28 29  1  0
 28 33  2  0
 29 34  1  0
 29 38  2  0
 30 35  2  0
 30 40  1  0
 31 35  1  0
 32 33  1  0
 36 40  1  0
M  END
$$$$

     RDKit          3D

 35 40  0  0  0  0  0  0  0  0999 V2000
  -30.5448    1.8792  -34.2414 C   0  0  0  0  0  0  0  0  0  0  0  0
  -30.1895    2.8579  -35.1750 C   0  0  0  0  0  0  0  0  0  0  0  0
  -29.5524    1.0734  -33.6515 C   0  0  0  0  0  0  0  0  0  0  0  0
  -28.8606    3.1319  -35.4674 C   0  0  0  0  0  0  0  0  0  0  0  0
  -28.2104    1.3201  -33.9902 C   0  0  0  0  0  0  0  0  0  0  0  0
  -27.8593    2.3581  -34.8744 C   0  0  0  0  0  0  0  0  0  0  0  0
  -27.4388   -0.6980  -32.6599 C   0  0  0  0  0  0  0  0  0  0  0  0
  -27.1723    0.5180  -33.4653 C   0  0  0  0  0  0  0  0  0  0  0  0
  -25.8522    0.9283  -33.7304 C   0  0  0  0  0  0  0  0  0  0  0  0
  -25.5472    1.9732  -34.5828 C   0  0  0  0  0  0  0  0  0  0  0  0
  -24.1157    0.4419  -32.0749 C   0  0  0  0  0  0  0  0  0  0  0  0
  -23.6129    3.3751  -34.1040 C   0  0  0  0  0  0  0  0  0  0  0  0
  -23.4518    1.5967  -35.6993 C   0  0  0  0  0  0  0  0  0  0  0  0
  -23.2942    1.7468  -30.3597 C   0  0  0  0  0  0  0  0  0  0  0  0
  -22.9794    2.8850  -29.5132 C   0  0  0  0  0  0  0  0  0  0  0  0
  -22.4816   -0.4839  -30.7063 C   0  0  0  0  0  0  0  0  0  0  0  0
  -22.4583    0.7324  -29.9827 C   0  0  0  0  0  0  0  0  0  0  0  0
  -22.3236    3.7284  -34.3450 C   0  0  0  0  0  0  0  0  0  0  0  0
  -22.3540    4.1601  -26.9232 C   0  0  0  0  0  0  0  0  0  0  0  0
  -22.1390    1.9396  -35.9300 C   0  0  0  0  0  0  0  0  0  0  0  0
  -21.9297    4.8371  -25.6615 C   0  0  0  0  0  0  0  0  0  0  0  0
  -21.6290    1.1401  -28.9091 C   0  0  0  0  0  0  0  0  0  0  0  0
  -21.5946    3.0032  -35.2415 C   0  0  0  0  0  0  0  0  0  0  0  0
  -21.2199    2.0225  -26.3684 C   0  0  0  0  0  0  0  0  0  0  0  0
  -21.4137    3.0957  -27.4677 C   0  0  0  0  0  0  0  0  0  0  0  0
  -20.8640    4.0752  -24.8274 C   0  0  0  0  0  0  0  0  0  0  0  0
  -28.1649   -1.6186  -33.0515 O   0  0  0  0  0  0  0  0  0  0  0  0
  -26.8879   -0.8205  -31.5635 O   0  0  0  0  0  0  0  0  0  0  0  0
  -26.5530    2.6527  -35.1497 N   0  0  0  0  0  0  0  0  0  0  0  0
  -24.7984    0.2158  -33.1965 N   0  0  0  0  0  0  0  0  0  0  0  0
  -24.1459    1.6285  -31.4117 N   0  0  0  0  0  0  0  0  0  0  0  0
  -24.2036    2.3123  -34.8091 N   0  0  0  0  0  0  0  0  0  0  0  0
  -23.3446   -0.5742  -31.6982 N   0  0  0  0  0  0  0  0  0  0  0  0
  -21.9327    2.4597  -28.6846 N   0  0  0  0  0  0  0  0  0  0  0  0
  -20.8533    2.6556  -25.0916 N   0  0  0  0  0  0  0  0  0  0  0  0
  1  2  2  0
  1  3  1  0
  2  4  1  0
  3  5  2  0
  4  6  2  0
  5  6  1  0
  5  8  1  0
  6 29  1  0
  7  8  1  0
  7 27  2  0
  7 28  1  0
  8  9  2  0
  9 10  1  0
  9 30  1  0
 10 29  2  0
 10 32  1  0
 11 30  1  0
 11 31  2  0
 11 33  1  0
 12 18  1  0
 12 32  1  0
 13 20  2  0
 13 32  1  0
 14 15  1  0
 14 17  2  0
 14 31  1  0
 15 34  1  0
 16 17  1  0
 16 33  2  0
 17 22  1  0
 18 23  2  0
 19 21  1  0
 19 25  1  0
 20 23  1  0
 21 26  1  0
 22 34  1  0
 24 25  1  0
 24 35  1  0
 25 34  1  0
 26 35  1  0
M  END
$$$$

     RDKit          3D

 38 41  0  0  0  0  0  0  0  0999 V2000
  -30.0545    0.7147  -35.1235 C   0  0  0  0  0  0  0  0  0  0  0  0
  -29.9814    3.9563  -35.6128 C   0  0  0  0  0  0  0  0  0  0  0  0
  -29.9084   -0.5335  -34.4312 C   0  0  0  0  0  0  0  0  0  0  0  0
  -29.0135    1.7057  -35.0179 C   0  0  0  0  0  0  0  0  0  0  0  0
  -28.8163   -0.7656  -33.5982 C   0  0  0  0  0  0  0  0  0  0  0  0
  -28.1876    2.9513  -36.9798 C   0  0  0  0  0  0  0  0  0  0  0  0
  -27.8418    0.2093  -33.4302 C   0  0  0  0  0  0  0  0  0  0  0  0
  -27.9501    1.4622  -34.1040 C   0  0  0  0  0  0  0  0  0  0  0  0
  -25.6043    2.2023  -34.2551 C   0  0  0  0  0  0  0  0  0  0  0  0
  -25.1212    0.7818  -30.6413 C   0  0  0  0  0  0  0  0  0  0  0  0
  -25.0712    1.0203  -34.8917 C   0  0  0  0  0  0  0  0  0  0  0  0
  -24.8176   -0.4005  -31.3043 C   0  0  0  0  0  0  0  0  0  0  0  0
  -24.7338    3.2259  -33.8575 C   0  0  0  0  0  0  0  0  0  0  0  0
  -24.1116    1.7096  -30.4845 C   0  0  0  0  0  0  0  0  0  0  0  0
  -23.5021   -0.6744  -31.7205 C   0  0  0  0  0  0  0  0  0  0  0  0
  -23.6972    0.9682  -35.1121 C   0  0  0  0  0  0  0  0  0  0  0  0
  -23.4025    3.1158  -34.0758 C   0  0  0  0  0  0  0  0  0  0  0  0
  -22.8086    1.4660  -30.9130 C   0  0  0  0  0  0  0  0  0  0  0  0
  -22.8415    1.9972  -34.6603 C   0  0  0  0  0  0  0  0  0  0  0  0
  -22.5125    0.2526  -31.5700 C   0  0  0  0  0  0  0  0  0  0  0  0
  -22.2878    3.6540  -30.0302 C   0  0  0  0  0  0  0  0  0  0  0  0
  -22.4498    4.9561  -27.9385 C   0  0  0  0  0  0  0  0  0  0  0  0
  -22.3179    5.1329  -26.5635 C   0  0  0  0  0  0  0  0  0  0  0  0
  -22.0947    3.7446  -28.5431 C   0  0  0  0  0  0  0  0  0  0  0  0
  -21.8375    4.0815  -25.7334 C   0  0  0  0  0  0  0  0  0  0  0  0
  -21.6086    2.6869  -27.7179 C   0  0  0  0  0  0  0  0  0  0  0  0
  -21.4910    2.8579  -26.3275 C   0  0  0  0  0  0  0  0  0  0  0  0
  -20.9833    1.7670  -25.3966 C   0  0  0  0  0  0  0  0  0  0  0  0
  -20.7655    3.3379  -32.8556 C   0  0  0  0  0  0  0  0  0  0  0  0
  -20.4932    2.5748  -34.1256 C   0  0  0  0  0  0  0  0  0  0  0  0
  -20.5760    2.4855  -31.5326 C   0  0  0  0  0  0  0  0  0  0  0  0
  -31.1007    0.9378  -35.8275 O   0  0  0  0  0  0  0  0  0  0  0  0
  -22.9075    4.5021  -30.6560 O   0  0  0  0  0  0  0  0  0  0  0  0
  -21.4598    1.8876  -34.8006 O   0  0  0  0  0  0  0  0  0  0  0  0
  -19.3504    2.5016  -34.5471 O   0  0  0  0  0  0  0  0  0  0  0  0
  -29.0179    2.8865  -35.8262 N   0  0  0  0  0  0  0  0  0  0  0  0
  -26.9271    2.3845  -33.8883 N   0  0  0  0  0  0  0  0  0  0  0  0
  -21.8388    2.4753  -30.7127 N   0  0  0  0  0  0  0  0  0  0  0  0
  1  3  1  0
  1  4  1  0
  1 32  2  0
  2 36  1  0
  3  5  1  0
  4  8  2  0
  4 36  1  0
  5  7  2  0
  6 36  1  0
  7  8  1  0
  8 37  1  0
  9 11  1  0
  9 13  1  0
  9 37  2  3
 10 12  1  0
 10 14  2  0
 11 16  1  0
 12 15  1  0
 13 17  2  0
 14 18  1  0
 15 20  2  0
 16 19  2  0
 17 19  1  0
 18 20  1  0
 18 38  1  0
 19 34  1  0
 21 24  1  0
 21 33  2  0
 21 38  1  0
 22 23  2  0
 22 24  1  0
 23 25  1  0
 24 26  2  0
 25 27  2  0
 26 27  1  0
 27 28  1  0
 29 30  1  0
 29 31  1  0
 30 34  1  0
 30 35  2  0
 31 38  1  0
M  END
$$$$

     RDKit          3D

 32 37  0  0  0  0  0  0  0  0999 V2000
  -31.1051    0.6142  -34.0278 C   0  0  0  0  0  0  0  0  0  0  0  0
  -30.6103    1.9285  -34.2764 C   0  0  0  0  0  0  0  0  0  0  0  0
  -30.2429   -0.3944  -33.5358 C   0  0  0  0  0  0  0  0  0  0  0  0
  -29.3004    2.2220  -34.0395 C   0  0  0  0  0  0  0  0  0  0  0  0
  -28.9057   -0.0578  -33.3239 C   0  0  0  0  0  0  0  0  0  0  0  0
  -28.4732    1.2244  -33.5711 C   0  0  0  0  0  0  0  0  0  0  0  0
  -27.7780   -0.7778  -32.8229 C   0  0  0  0  0  0  0  0  0  0  0  0
  -27.1338    1.2630  -33.2560 C   0  0  0  0  0  0  0  0  0  0  0  0
  -25.4122   -0.0387  -32.2921 C   0  0  0  0  0  0  0  0  0  0  0  0
  -25.1069    2.2576  -33.0033 C   0  0  0  0  0  0  0  0  0  0  0  0
  -24.9537   -1.1692  -31.6860 C   0  0  0  0  0  0  0  0  0  0  0  0
  -24.5930    1.0704  -32.4102 C   0  0  0  0  0  0  0  0  0  0  0  0
  -24.2960    3.5079  -33.0663 C   0  0  0  0  0  0  0  0  0  0  0  0
  -23.9385    7.4285  -29.9150 C   0  0  0  0  0  0  0  0  0  0  0  0
  -23.6667   -1.2068  -31.2596 C   0  0  0  0  0  0  0  0  0  0  0  0
  -23.2965    0.9922  -31.9536 C   0  0  0  0  0  0  0  0  0  0  0  0
  -23.2914    6.0625  -29.8441 C   0  0  0  0  0  0  0  0  0  0  0  0
  -23.0981    5.4305  -28.6296 C   0  0  0  0  0  0  0  0  0  0  0  0
  -22.7951   -0.1545  -31.3854 C   0  0  0  0  0  0  0  0  0  0  0  0
  -22.8450    3.2436  -33.2533 C   0  0  0  0  0  0  0  0  0  0  0  0
  -22.4896    4.1606  -28.6561 C   0  0  0  0  0  0  0  0  0  0  0  0
  -22.3804    2.7472  -34.4826 C   0  0  0  0  0  0  0  0  0  0  0  0
  -22.3358    4.2264  -30.9726 C   0  0  0  0  0  0  0  0  0  0  0  0
  -21.9039    3.5992  -32.2345 C   0  0  0  0  0  0  0  0  0  0  0  0
  -21.0142    2.4961  -34.6696 C   0  0  0  0  0  0  0  0  0  0  0  0
  -20.5365    3.2835  -32.4552 C   0  0  0  0  0  0  0  0  0  0  0  0
  -20.1159    2.7749  -33.6786 C   0  0  0  0  0  0  0  0  0  0  0  0
  -26.7145    0.1093  -32.7804 N   0  0  0  0  0  0  0  0  0  0  0  0
  -26.4004    2.3873  -33.2576 N   0  0  0  0  0  0  0  0  0  0  0  0
  -22.9117    5.4623  -31.0145 N   0  0  0  0  0  0  0  0  0  0  0  0
  -22.1535    3.5773  -29.8272 N   0  0  0  0  0  0  0  0  0  0  0  0
  -22.9859   -2.5612  -30.4783 Cl  0  0  0  0  0  0  0  0  0  0  0  0
  1  2  2  0
  1  3  1  0
  2  4  1  0
  3  5  2  0
  4  6  2  0
  5  6  1  0
  5  7  1  0
  6  8  1  0
  7 28  1  0
  8 28  1  0
  8 29  2  0
  9 11  1  0
  9 12  1  0
  9 28  1  0
 10 12  2  0
 10 13  1  0
 10 29  1  0
 11 15  2  0
 12 16  1  0
 13 20  1  0
 14 17  1  0
 15 19  1  0
 15 32  1  0
 16 19  2  0
 17 18  2  0
 17 30  1  0
 18 21  1  0
 20 22  2  0
 20 24  1  0
 21 31  2  0
 22 25  1  0
 23 24  1  0
 23 30  2  0
 23 31  1  0
 24 26  2  0
 25 27  2  0
 26 27  1  0
M  END
$$$$

     RDKit          3D

 45 50  0  0  0  0  0  0  0  0999 V2000
  -30.6093   -1.4903  -35.5537 C   0  0  0  0  0  0  0  0  0  0  0  0
  -28.0591    0.6916  -33.3420 C   0  0  0  0  0  0  0  0  0  0  0  0
  -27.5153    3.8027  -38.8301 C   0  0  0  0  0  0  0  0  0  0  0  0
  -27.1384    2.5116  -32.4179 C   0  0  0  0  0  0  0  0  0  0  0  0
  -26.8569    3.6991  -31.6810 C   0  0  0  0  0  0  0  0  0  0  0  0
  -26.9410    3.8328  -40.1176 C   0  0  0  0  0  0  0  0  0  0  0  0
  -26.6686    0.5404  -33.5471 C   0  0  0  0  0  0  0  0  0  0  0  0
  -26.6849    3.6290  -37.6952 C   0  0  0  0  0  0  0  0  0  0  0  0
  -26.1155    1.6278  -32.8109 C   0  0  0  0  0  0  0  0  0  0  0  0
  -25.9208   -0.4206  -34.3127 C   0  0  0  0  0  0  0  0  0  0  0  0
  -25.6469    3.5690  -40.3945 C   0  0  0  0  0  0  0  0  0  0  0  0
  -25.5099    3.9880  -31.4051 C   0  0  0  0  0  0  0  0  0  0  0  0
  -25.3126    3.3883  -37.8986 C   0  0  0  0  0  0  0  0  0  0  0  0
  -24.7386    1.8768  -32.4806 C   0  0  0  0  0  0  0  0  0  0  0  0
  -24.7766    3.2289  -39.2234 C   0  0  0  0  0  0  0  0  0  0  0  0
  -24.4607    3.1090  -31.8027 C   0  0  0  0  0  0  0  0  0  0  0  0
  -24.4172    3.2711  -36.7518 C   0  0  0  0  0  0  0  0  0  0  0  0
  -23.4239    2.8186  -39.3708 C   0  0  0  0  0  0  0  0  0  0  0  0
  -23.0333    2.9729  -36.9439 C   0  0  0  0  0  0  0  0  0  0  0  0
  -22.7098    2.9502  -30.3601 C   0  0  0  0  0  0  0  0  0  0  0  0
  -22.7223    3.8406  -29.2965 C   0  0  0  0  0  0  0  0  0  0  0  0
  -22.7686    5.6651  -27.1663 C   0  0  0  0  0  0  0  0  0  0  0  0
  -22.5796    2.6773  -38.2424 C   0  0  0  0  0  0  0  0  0  0  0  0
  -22.2180    3.4380  -28.0970 C   0  0  0  0  0  0  0  0  0  0  0  0
  -22.2487    4.2161  -32.3508 C   0  0  0  0  0  0  0  0  0  0  0  0
  -22.1772    1.6481  -30.2560 C   0  0  0  0  0  0  0  0  0  0  0  0
  -21.9660    3.1071  -35.8779 C   0  0  0  0  0  0  0  0  0  0  0  0
  -21.7649    3.2898  -33.4497 C   0  0  0  0  0  0  0  0  0  0  0  0
  -21.6408    1.2392  -29.0728 C   0  0  0  0  0  0  0  0  0  0  0  0
  -21.6886    2.1308  -27.9628 C   0  0  0  0  0  0  0  0  0  0  0  0
  -21.6914    3.9702  -25.8356 C   0  0  0  0  0  0  0  0  0  0  0  0
  -21.2533    2.6448  -25.6491 C   0  0  0  0  0  0  0  0  0  0  0  0
  -20.6598    0.4179  -26.4159 C   0  0  0  0  0  0  0  0  0  0  0  0
  -30.3476   -0.4069  -32.8516 O   0  0  0  0  0  0  0  0  0  0  0  0
  -29.6221   -0.5193  -35.1877 O   0  0  0  0  0  0  0  0  0  0  0  0
  -28.5297   -1.8435  -33.4884 O   0  0  0  0  0  0  0  0  0  0  0  0
  -23.8608    0.9551  -32.6609 O   0  0  0  0  0  0  0  0  0  0  0  0
  -21.0367    2.3254  -33.2665 O   0  0  0  0  0  0  0  0  0  0  0  0
  -20.7878    3.0477  -36.1224 O   0  0  0  0  0  0  0  0  0  0  0  0
  -28.3089    1.9147  -32.7941 N   0  0  0  0  0  0  0  0  0  0  0  0
  -23.1783    3.4519  -31.5669 N   0  0  0  0  0  0  0  0  0  0  0  0
  -22.3910    3.5053  -34.6620 N   0  0  0  0  0  0  0  0  0  0  0  0
  -22.2401    4.3232  -27.0410 N   0  0  0  0  0  0  0  0  0  0  0  0
  -21.1950    1.7568  -26.7098 N   0  0  0  0  0  0  0  0  0  0  0  0
  -29.1861   -0.5694  -33.7195 S   0  0  0  0  0  0  0  0  0  0  0  0
  1 35  1  0
  2  7  1  0
  2 40  1  0
  2 45  1  0
  3  6  1  0
  3  8  1  0
  4  5  1  0
  4  9  2  0
  4 40  1  0
  5 12  2  0
  6 11  2  0
  7  9  1  0
  7 10  1  0
  8 13  2  0
  9 14  1  0
 11 15  1  0
 12 16  1  0
 13 15  1  0
 13 17  1  0
 14 16  2  0
 14 37  1  0
 15 18  2  0
 16 41  1  0
 17 19  1  0
 18 23  1  0
 19 23  2  0
 19 27  1  0
 20 21  1  0
 20 26  1  0
 20 41  1  0
 21 24  2  0
 22 43  1  0
 24 30  1  0
 24 43  1  0
 25 28  1  0
 25 41  1  0
 26 29  2  0
 27 39  2  0
 27 42  1  0
 28 38  2  0
 28 42  1  0
 29 30  1  0
 30 44  1  0
 31 32  2  0
 31 43  1  0
 32 44  1  0
 33 44  1  0
 34 45  1  0
 35 45  1  0
 36 45  1  0
M  END
$$$$

     RDKit          3D

 61 65  0  0  0  0  0  0  0  0999 V2000
  -28.7514    3.4578  -35.3762 C   0  0  0  0  0  0  0  0  0  0  0  0
  -28.5120    6.1541  -30.8898 C   0  0  0  0  0  0  0  0  0  0  0  0
  -27.9716   -0.5444  -32.9523 C   0  0  0  0  0  0  0  0  0  0  0  0
  -28.1050    5.4001  -32.0118 C   0  0  0  0  0  0  0  0  0  0  0  0
  -27.6607   -1.4554  -31.9715 C   0  0  0  0  0  0  0  0  0  0  0  0
  -27.5706    6.4635  -29.9186 C   0  0  0  0  0  0  0  0  0  0  0  0
  -27.4466    3.2765  -38.2636 C   0  0  0  0  0  0  0  0  0  0  0  0
  -27.3017    3.2672  -35.7203 C   0  0  0  0  0  0  0  0  0  0  0  0
  -27.0745    0.5004  -33.1908 C   0  0  0  0  0  0  0  0  0  0  0  0
  -26.7680    4.9485  -32.1259 C   0  0  0  0  0  0  0  0  0  0  0  0
  -26.6508    2.0690  -35.0572 C   0  0  0  0  0  0  0  0  0  0  0  0
  -26.5021    3.2840  -39.4274 C   0  0  0  0  0  0  0  0  0  0  0  0
  -26.4479   -1.3610  -31.2686 C   0  0  0  0  0  0  0  0  0  0  0  0
  -26.2274    6.0910  -30.0518 C   0  0  0  0  0  0  0  0  0  0  0  0
  -25.8814    0.6710  -32.4759 C   0  0  0  0  0  0  0  0  0  0  0  0
  -25.8501    5.2524  -31.1201 C   0  0  0  0  0  0  0  0  0  0  0  0
  -25.5453   -0.3077  -31.5090 C   0  0  0  0  0  0  0  0  0  0  0  0
  -25.6266    4.3963  -36.9897 C   0  0  0  0  0  0  0  0  0  0  0  0
  -25.4301    4.2264  -39.4666 C   0  0  0  0  0  0  0  0  0  0  0  0
  -25.0168    4.7971  -38.2474 C   0  0  0  0  0  0  0  0  0  0  0  0
  -24.2597   -0.2254  -30.8170 C   0  0  0  0  0  0  0  0  0  0  0  0
  -23.2577   -1.2075  -30.9228 C   0  0  0  0  0  0  0  0  0  0  0  0
  -23.3854    5.2797  -30.8825 C   0  0  0  0  0  0  0  0  0  0  0  0
  -22.9390    2.1765  -37.4563 C   0  0  0  0  0  0  0  0  0  0  0  0
  -22.2222    3.0671  -36.5338 C   0  0  0  0  0  0  0  0  0  0  0  0
  -22.1198   -1.1049  -29.9700 C   0  0  0  0  0  0  0  0  0  0  0  0
  -22.1780    4.3862  -30.9038 C   0  0  0  0  0  0  0  0  0  0  0  0
  -21.8004    3.7602  -32.1459 C   0  0  0  0  0  0  0  0  0  0  0  0
  -21.5660    4.2515  -37.1828 C   0  0  0  0  0  0  0  0  0  0  0  0
  -21.2599    4.2820  -29.8135 C   0  0  0  0  0  0  0  0  0  0  0  0
  -20.9684   -0.3964  -30.5790 C   0  0  0  0  0  0  0  0  0  0  0  0
  -20.7207    0.9398  -27.7264 C   0  0  0  0  0  0  0  0  0  0  0  0
  -20.8898    1.0862  -26.3425 C   0  0  0  0  0  0  0  0  0  0  0  0
  -20.4966    3.1855  -32.3089 C   0  0  0  0  0  0  0  0  0  0  0  0
  -20.5467    3.3191  -34.8421 C   0  0  0  0  0  0  0  0  0  0  0  0
  -20.2509    0.2448  -25.4173 C   0  0  0  0  0  0  0  0  0  0  0  0
  -19.9729    2.7071  -33.6116 C   0  0  0  0  0  0  0  0  0  0  0  0
  -19.9910    3.6828  -29.9892 C   0  0  0  0  0  0  0  0  0  0  0  0
  -19.8897   -0.0857  -28.2235 C   0  0  0  0  0  0  0  0  0  0  0  0
  -19.7017   -0.2356  -29.7493 C   0  0  0  0  0  0  0  0  0  0  0  0
  -19.6542    3.1207  -31.2068 C   0  0  0  0  0  0  0  0  0  0  0  0
  -19.2204   -0.9272  -27.3017 C   0  0  0  0  0  0  0  0  0  0  0  0
  -19.4177   -0.7567  -25.9240 C   0  0  0  0  0  0  0  0  0  0  0  0
  -30.6433    5.0030  -32.6258 O   0  0  0  0  0  0  0  0  0  0  0  0
  -29.2096    6.1366  -34.2526 O   0  0  0  0  0  0  0  0  0  0  0  0
  -26.2250    4.2309  -33.1426 O   0  0  0  0  0  0  0  0  0  0  0  0
  -25.4404    1.8185  -35.1705 O   0  0  0  0  0  0  0  0  0  0  0  0
  -25.1285    1.7870  -32.5700 O   0  0  0  0  0  0  0  0  0  0  0  0
  -23.2514    6.4407  -30.6470 O   0  0  0  0  0  0  0  0  0  0  0  0
  -22.1671    1.5159  -34.8808 O   0  0  0  0  0  0  0  0  0  0  0  0
  -20.9962    0.0368  -31.7346 O   0  0  0  0  0  0  0  0  0  0  0  0
  -18.9935   -1.4367  -30.0387 O   0  0  0  0  0  0  0  0  0  0  0  0
  -19.1244    1.8406  -33.7345 O   0  0  0  0  0  0  0  0  0  0  0  0
  -28.9480    3.6550  -33.9435 N   0  0  0  0  0  0  0  0  0  0  0  0
  -27.4377    1.3841  -34.2139 N   0  0  0  0  0  0  0  0  0  0  0  0
  -26.7849    3.5416  -37.0572 N   0  0  0  0  0  0  0  0  0  0  0  0
  -24.5484    4.7487  -31.2215 N   0  0  0  0  0  0  0  0  0  0  0  0
  -23.8069    2.8949  -38.2705 N   0  0  0  0  0  0  0  0  0  0  0  0
  -21.5745    2.5742  -35.4177 N   0  0  0  0  0  0  0  0  0  0  0  0
  -29.3218    5.0998  -33.2683 S   0  0  0  0  0  0  0  0  0  0  0  0
  -21.6155    2.0882  -25.8611 F   0  0  0  0  0  0  0  0  0  0  0  0
  1  8  1  0
  1 54  1  0
  2  4  1  0
  2  6  2  0
  3  5  2  0
  3  9  1  0
  4 10  1  0
  4 60  1  0
  5 13  1  0
  6 14  1  0
  7 12  1  0
  7 56  1  0
  8 11  1  0
  8 56  1  0
  9 15  2  0
  9 55  1  0
 10 16  2  0
 10 46  1  0
 11 47  2  0
 11 55  1  0
 12 19  1  0
 13 17  2  0
 14 16  1  0
 15 17  1  0
 15 48  1  0
 16 57  1  0
 17 21  1  0
 18 20  1  0
 18 56  1  0
 19 20  2  0
 21 22  2  3
 22 26  1  0
 23 27  1  0
 23 49  2  0
 23 57  1  0
 24 25  1  0
 24 58  1  0
 25 29  1  0
 25 59  1  0
 26 31  1  0
 27 28  2  0
 27 30  1  0
 28 34  1  0
 30 38  2  0
 31 40  1  0
 31 51  2  0
 32 33  2  0
 32 39  1  0
 33 36  1  0
 33 61  1  0
 34 37  1  0
 34 41  2  0
 35 37  1  0
 35 59  1  0
 36 43  2  0
 37 53  2  0
 38 41  1  0
 39 40  1  0
 39 42  2  0
 40 52  1  0
 42 43  1  0
 44 60  1  0
 45 60  1  0
 50 59  1  0
 54 60  1  0
M  END
$$$$

     RDKit          3D

 33 37  0  0  0  0  0  0  0  0999 V2000
  -28.8207   -0.5839  -33.2594 C   0  0  0  0  0  0  0  0  0  0  0  0
  -27.7324    0.2992  -33.6759 C   0  0  0  0  0  0  0  0  0  0  0  0
  -27.8445    1.6580  -33.4110 C   0  0  0  0  0  0  0  0  0  0  0  0
  -26.8554    2.5007  -33.7818 C   0  0  0  0  0  0  0  0  0  0  0  0
  -26.5189   -0.1530  -34.2247 C   0  0  0  0  0  0  0  0  0  0  0  0
  -25.8024    6.3204  -33.3288 C   0  0  0  0  0  0  0  0  0  0  0  0
  -25.4751    0.7201  -34.6061 C   0  0  0  0  0  0  0  0  0  0  0  0
  -25.6682    2.0845  -34.3633 C   0  0  0  0  0  0  0  0  0  0  0  0
  -25.6419    4.9734  -33.5019 C   0  0  0  0  0  0  0  0  0  0  0  0
  -25.2212    7.2626  -34.1403 C   0  0  0  0  0  0  0  0  0  0  0  0
  -24.7731    4.5356  -34.5576 C   0  0  0  0  0  0  0  0  0  0  0  0
  -24.6371    3.0956  -34.7467 C   0  0  0  0  0  0  0  0  0  0  0  0
  -24.3916    6.7928  -35.1501 C   0  0  0  0  0  0  0  0  0  0  0  0
  -24.1334    5.4500  -35.4111 C   0  0  0  0  0  0  0  0  0  0  0  0
  -22.6893    2.3990  -32.8658 C   0  0  0  0  0  0  0  0  0  0  0  0
  -22.4370    2.6168  -34.2428 C   0  0  0  0  0  0  0  0  0  0  0  0
  -21.9770    1.5346  -30.7173 C   0  0  0  0  0  0  0  0  0  0  0  0
  -21.6364    1.9631  -32.0169 C   0  0  0  0  0  0  0  0  0  0  0  0
  -21.3449    0.4282  -28.5886 C   0  0  0  0  0  0  0  0  0  0  0  0
  -21.0052    0.9236  -29.9008 C   0  0  0  0  0  0  0  0  0  0  0  0
  -21.1289    2.5243  -34.6672 C   0  0  0  0  0  0  0  0  0  0  0  0
  -20.3396    1.8492  -32.5330 C   0  0  0  0  0  0  0  0  0  0  0  0
  -19.6778    0.7742  -30.3601 C   0  0  0  0  0  0  0  0  0  0  0  0
  -19.3300    1.2958  -31.6497 C   0  0  0  0  0  0  0  0  0  0  0  0
  -19.1874   -0.4524  -28.3386 C   0  0  0  0  0  0  0  0  0  0  0  0
  -18.7141    0.1060  -29.5512 C   0  0  0  0  0  0  0  0  0  0  0  0
  -28.4733   -1.6046  -32.7026 O   0  0  0  0  0  0  0  0  0  0  0  0
  -23.4497    2.6947  -35.1867 O   0  0  0  0  0  0  0  0  0  0  0  0
  -18.3193   -1.1953  -27.6076 O   0  0  0  0  0  0  0  0  0  0  0  0
  -30.1322   -0.2739  -33.4741 N   0  0  0  0  0  0  0  0  0  0  0  0
  -20.4079   -0.2325  -27.8424 N   0  0  0  0  0  0  0  0  0  0  0  0
  -20.0950    2.1853  -33.8480 N   0  0  0  0  0  0  0  0  0  0  0  0
  -23.8477    7.7083  -35.9822 F   0  0  0  0  0  0  0  0  0  0  0  0
  1  2  1  0
  1 27  2  0
  1 30  1  0
  2  3  1  0
  2  5  2  0
  3  4  2  0
  4  8  1  0
  5  7  1  0
  6  9  2  0
  6 10  1  0
  7  8  1  0
  8 12  2  3
  9 11  1  0
 10 13  2  0
 11 12  1  0
 11 14  2  0
 12 28  1  0
 13 14  1  0
 13 33  1  0
 15 16  2  0
 15 18  1  0
 16 21  1  0
 16 28  1  0
 17 18  1  0
 17 20  2  0
 18 22  2  0
 19 20  1  0
 19 31  2  0
 20 23  1  0
 21 32  2  0
 22 24  1  0
 22 32  1  0
 23 24  1  0
 23 26  2  0
 25 26  1  0
 25 29  2  0
 25 31  1  0
M  END
$$$$

     RDKit          3D

 52 57  0  0  0  0  0  0  0  0999 V2000
  -31.3979   -1.9107  -36.5964 C   0  0  0  0  0  0  0  0  0  0  0  0
  -31.2176    0.4989  -36.9824 C   0  0  0  0  0  0  0  0  0  0  0  0
  -30.8711    1.8087  -36.6198 C   0  0  0  0  0  0  0  0  0  0  0  0
  -30.1086   -0.3861  -35.0765 C   0  0  0  0  0  0  0  0  0  0  0  0
  -29.7912    0.9684  -34.6537 C   0  0  0  0  0  0  0  0  0  0  0  0
  -29.5994    3.4396  -35.0303 C   0  0  0  0  0  0  0  0  0  0  0  0
  -29.0466    1.1673  -33.3992 C   0  0  0  0  0  0  0  0  0  0  0  0
  -28.6102    2.5376  -33.0341 C   0  0  0  0  0  0  0  0  0  0  0  0
  -27.4267    4.3948  -34.1230 C   0  0  0  0  0  0  0  0  0  0  0  0
  -27.3772    5.5618  -35.1138 C   0  0  0  0  0  0  0  0  0  0  0  0
  -26.5889    4.6078  -32.8930 C   0  0  0  0  0  0  0  0  0  0  0  0
  -26.3765    3.9502  -36.6941 C   0  0  0  0  0  0  0  0  0  0  0  0
  -26.1862    6.3694  -37.0920 C   0  0  0  0  0  0  0  0  0  0  0  0
  -25.6105    3.3933  -30.5980 C   0  0  0  0  0  0  0  0  0  0  0  0
  -25.2634   -0.9135  -33.1297 C   0  0  0  0  0  0  0  0  0  0  0  0
  -25.4573   -0.6561  -31.7875 C   0  0  0  0  0  0  0  0  0  0  0  0
  -25.2135    0.6100  -31.3305 C   0  0  0  0  0  0  0  0  0  0  0  0
  -24.8903    0.0692  -34.0522 C   0  0  0  0  0  0  0  0  0  0  0  0
  -24.7718    1.6392  -32.1615 C   0  0  0  0  0  0  0  0  0  0  0  0
  -24.6096    1.3614  -33.5565 C   0  0  0  0  0  0  0  0  0  0  0  0
  -24.4221    2.9572  -31.5071 C   0  0  0  0  0  0  0  0  0  0  0  0
  -24.1779    3.9744  -32.5968 C   0  0  0  0  0  0  0  0  0  0  0  0
  -22.9600    3.3372  -29.5146 C   0  0  0  0  0  0  0  0  0  0  0  0
  -22.9639    4.1556  -33.3136 C   0  0  0  0  0  0  0  0  0  0  0  0
  -23.2074    5.2387  -34.1836 C   0  0  0  0  0  0  0  0  0  0  0  0
  -22.2616    2.1891  -28.9999 C   0  0  0  0  0  0  0  0  0  0  0  0
  -21.8445    1.9275  -27.7120 C   0  0  0  0  0  0  0  0  0  0  0  0
  -21.6678    3.4922  -33.1840 C   0  0  0  0  0  0  0  0  0  0  0  0
  -20.9595    0.8262  -27.4387 C   0  0  0  0  0  0  0  0  0  0  0  0
  -21.0179    2.8418  -34.2483 C   0  0  0  0  0  0  0  0  0  0  0  0
  -20.9859    3.6268  -31.9785 C   0  0  0  0  0  0  0  0  0  0  0  0
  -20.6944    0.5943  -26.1018 C   0  0  0  0  0  0  0  0  0  0  0  0
  -20.3408    0.0455  -28.4133 C   0  0  0  0  0  0  0  0  0  0  0  0
  -19.8327   -0.4024  -25.7188 C   0  0  0  0  0  0  0  0  0  0  0  0
  -19.7537    3.0283  -31.8100 C   0  0  0  0  0  0  0  0  0  0  0  0
  -19.4778   -0.9598  -28.0443 C   0  0  0  0  0  0  0  0  0  0  0  0
  -19.2201   -1.1476  -26.7040 C   0  0  0  0  0  0  0  0  0  0  0  0
  -19.1801    2.3444  -32.8623 C   0  0  0  0  0  0  0  0  0  0  0  0
  -30.0696    4.4426  -35.4944 O   0  0  0  0  0  0  0  0  0  0  0  0
  -29.7619   -1.3904  -34.3586 O   0  0  0  0  0  0  0  0  0  0  0  0
  -24.4481    5.6749  -33.9848 O   0  0  0  0  0  0  0  0  0  0  0  0
  -23.1166    4.4895  -29.0698 O   0  0  0  0  0  0  0  0  0  0  0  0
  -22.4114    1.3232  -29.9536 O   0  0  0  0  0  0  0  0  0  0  0  0
  -30.8985   -0.5607  -36.1924 N   0  0  0  0  0  0  0  0  0  0  0  0
  -30.0949    2.0075  -35.4696 N   0  0  0  0  0  0  0  0  0  0  0  0
  -28.5144    3.4852  -34.0869 N   0  0  0  0  0  0  0  0  0  0  0  0
  -26.6002    5.3025  -36.2866 N   0  0  0  0  0  0  0  0  0  0  0  0
  -25.1292    4.8031  -33.1342 N   0  0  0  0  0  0  0  0  0  0  0  0
  -23.2636    2.7000  -30.6621 N   0  0  0  0  0  0  0  0  0  0  0  0
  -19.7811    2.3039  -34.0657 N   0  0  0  0  0  0  0  0  0  0  0  0
  -18.7182   -1.9605  -29.2267 Cl  0  0  0  0  0  0  0  0  0  0  0  0
  -18.1253   -2.2957  -26.1709 Cl  0  0  0  0  0  0  0  0  0  0  0  0
  1 44  1  0
  2  3  2  0
  2 44  1  0
  3 45  1  0
  4  5  1  0
  4 40  2  0
  4 44  1  0
  5  7  2  0
  5 45  1  0
  6 39  2  0
  6 45  1  0
  6 46  1  0
  7  8  1  0
  8 46  1  0
  9 10  1  0
  9 11  1  0
  9 46  1  0
 10 47  1  0
 11 48  1  0
 12 47  1  0
 13 47  1  0
 14 21  1  0
 15 16  2  0
 15 18  1  0
 16 17  1  0
 17 19  2  0
 18 20  2  0
 19 20  1  0
 19 21  1  0
 21 22  1  0
 21 49  1  0
 22 24  2  0
 22 48  1  0
 23 26  1  0
 23 42  2  0
 23 49  1  0
 24 25  1  0
 24 28  1  0
 25 41  1  0
 26 27  1  0
 26 43  1  0
 27 29  2  3
 28 30  2  0
 28 31  1  0
 29 32  1  0
 29 33  1  0
 30 50  1  0
 31 35  2  0
 32 34  2  0
 33 36  2  0
 34 37  1  0
 35 38  1  0
 36 37  1  0
 36 51  1  0
 37 52  1  0
 38 50  2  0
 41 48  1  0
M  END
$$$$

     RDKit          3D

 46 53  0  0  0  0  0  0  0  0999 V2000
  -31.6225    5.8565  -32.5878 C   0  0  0  0  0  0  0  0  0  0  0  0
  -31.4071    4.6378  -33.1388 C   0  0  0  0  0  0  0  0  0  0  0  0
  -30.4870    6.4419  -31.9521 C   0  0  0  0  0  0  0  0  0  0  0  0
  -30.0214    1.5669  -33.1675 C   0  0  0  0  0  0  0  0  0  0  0  0
  -30.0466    2.7423  -35.2534 C   0  0  0  0  0  0  0  0  0  0  0  0
  -30.0744    2.7604  -33.8581 C   0  0  0  0  0  0  0  0  0  0  0  0
  -30.1654    4.0106  -33.1228 C   0  0  0  0  0  0  0  0  0  0  0  0
  -29.8019    0.4022  -35.1925 C   0  0  0  0  0  0  0  0  0  0  0  0
  -29.9016    0.3819  -33.8256 C   0  0  0  0  0  0  0  0  0  0  0  0
  -29.9118    1.5406  -35.9097 C   0  0  0  0  0  0  0  0  0  0  0  0
  -29.1025    4.5981  -32.3857 C   0  0  0  0  0  0  0  0  0  0  0  0
  -27.7318    4.0154  -32.1402 C   0  0  0  0  0  0  0  0  0  0  0  0
  -27.2421    4.4782  -35.2131 C   0  0  0  0  0  0  0  0  0  0  0  0
  -26.9843    4.5627  -36.5919 C   0  0  0  0  0  0  0  0  0  0  0  0
  -26.7276    3.4884  -33.0200 C   0  0  0  0  0  0  0  0  0  0  0  0
  -26.4909    3.6173  -34.4268 C   0  0  0  0  0  0  0  0  0  0  0  0
  -26.0458    3.7653  -37.1572 C   0  0  0  0  0  0  0  0  0  0  0  0
  -25.8135    2.7678  -32.2855 C   0  0  0  0  0  0  0  0  0  0  0  0
  -25.4976    2.8137  -35.0343 C   0  0  0  0  0  0  0  0  0  0  0  0
  -25.3091    2.9077  -36.4159 C   0  0  0  0  0  0  0  0  0  0  0  0
  -24.8570    0.0955  -31.0205 C   0  0  0  0  0  0  0  0  0  0  0  0
  -24.7078    1.8744  -34.2089 C   0  0  0  0  0  0  0  0  0  0  0  0
  -24.2641    0.8661  -32.0614 C   0  0  0  0  0  0  0  0  0  0  0  0
  -22.7281   -0.5954  -31.1327 C   0  0  0  0  0  0  0  0  0  0  0  0
  -22.9295    0.4054  -32.1516 C   0  0  0  0  0  0  0  0  0  0  0  0
  -21.5729   -2.7868  -30.9217 C   0  0  0  0  0  0  0  0  0  0  0  0
  -21.5516   -1.3712  -30.7781 C   0  0  0  0  0  0  0  0  0  0  0  0
  -21.5410    2.8704  -27.2731 C   0  0  0  0  0  0  0  0  0  0  0  0
  -21.3038    2.1042  -26.1377 C   0  0  0  0  0  0  0  0  0  0  0  0
  -21.3290    2.3199  -28.5451 C   0  0  0  0  0  0  0  0  0  0  0  0
  -20.8729    0.7950  -26.2644 C   0  0  0  0  0  0  0  0  0  0  0  0
  -20.8191    1.0058  -28.6396 C   0  0  0  0  0  0  0  0  0  0  0  0
  -20.6477    0.2373  -27.5012 C   0  0  0  0  0  0  0  0  0  0  0  0
  -20.4196   -5.0576  -30.7836 C   0  0  0  0  0  0  0  0  0  0  0  0
  -20.4286   -3.5197  -30.6963 C   0  0  0  0  0  0  0  0  0  0  0  0
  -20.4082   -0.7770  -30.2309 C   0  0  0  0  0  0  0  0  0  0  0  0
  -19.2459   -2.8745  -30.2979 C   0  0  0  0  0  0  0  0  0  0  0  0
  -19.2253   -1.5140  -30.0736 C   0  0  0  0  0  0  0  0  0  0  0  0
  -26.0076    0.0801  -30.6483 O   0  0  0  0  0  0  0  0  0  0  0  0
  -20.4957    0.5588  -29.8962 O   0  0  0  0  0  0  0  0  0  0  0  0
  -29.3171    5.7894  -31.8572 N   0  0  0  0  0  0  0  0  0  0  0  0
  -27.2106    3.8656  -30.9373 N   0  0  0  0  0  0  0  0  0  0  0  0
  -26.0877    3.0872  -30.9887 N   0  0  0  0  0  0  0  0  0  0  0  0
  -24.8952    1.8803  -32.8236 N   0  0  0  0  0  0  0  0  0  0  0  0
  -23.9146   -0.7618  -30.4856 N   0  0  0  0  0  0  0  0  0  0  0  0
  -29.8553    1.5368  -37.2550 F   0  0  0  0  0  0  0  0  0  0  0  0
  1  2  2  0
  1  3  1  0
  2  7  1  0
  3 41  2  0
  4  6  2  0
  4  9  1  0
  5  6  1  0
  5 10  2  0
  6  7  1  0
  7 11  2  0
  8  9  2  0
  8 10  1  0
 10 46  1  0
 11 12  1  0
 11 41  1  0
 12 15  1  0
 12 42  1  0
 13 14  2  0
 13 16  1  0
 14 17  1  0
 15 16  2  0
 15 18  1  0
 16 19  1  0
 17 20  2  0
 18 43  2  0
 18 44  1  0
 19 20  1  0
 19 22  2  0
 21 23  1  0
 21 39  2  0
 21 45  1  0
 22 44  1  0
 23 25  1  0
 23 44  1  0
 24 25  1  0
 24 27  1  0
 24 45  1  0
 26 27  2  0
 26 35  1  0
 27 36  1  0
 28 29  2  0
 28 30  1  0
 29 31  1  0
 30 32  2  0
 31 33  2  0
 32 33  1  0
 32 40  1  0
 34 35  1  0
 35 37  2  0
 36 38  2  0
 36 40  1  0
 37 38  1  0
 42 43  1  0
M  END
$$$$

     RDKit          3D

 51 57  0  0  0  0  0  0  0  0999 V2000
  -32.4776   -0.3600  -35.6412 C   0  0  0  0  0  0  0  0  0  0  0  0
  -32.0874   -1.4974  -36.3600 C   0  0  0  0  0  0  0  0  0  0  0  0
  -31.5657    0.0366  -34.5788 C   0  0  0  0  0  0  0  0  0  0  0  0
  -30.9349   -2.2356  -36.1088 C   0  0  0  0  0  0  0  0  0  0  0  0
  -30.6463   -3.4167  -36.9347 C   0  0  0  0  0  0  0  0  0  0  0  0
  -30.3922   -0.6893  -34.2855 C   0  0  0  0  0  0  0  0  0  0  0  0
  -30.0911   -1.8009  -35.0780 C   0  0  0  0  0  0  0  0  0  0  0  0
  -29.7323    7.2846  -27.9950 C   0  0  0  0  0  0  0  0  0  0  0  0
  -28.9646    6.8538  -30.6831 C   0  0  0  0  0  0  0  0  0  0  0  0
  -28.5774   -1.3016  -32.7974 C   0  0  0  0  0  0  0  0  0  0  0  0
  -28.5739    6.4360  -29.1052 C   0  0  0  0  0  0  0  0  0  0  0  0
  -27.7536    7.6898  -31.1793 C   0  0  0  0  0  0  0  0  0  0  0  0
  -27.1157   -0.8619  -32.9809 C   0  0  0  0  0  0  0  0  0  0  0  0
  -26.8062    6.9571  -32.1513 C   0  0  0  0  0  0  0  0  0  0  0  0
  -26.5453   -0.8766  -34.2812 C   0  0  0  0  0  0  0  0  0  0  0  0
  -26.3646   -0.4793  -31.8958 C   0  0  0  0  0  0  0  0  0  0  0  0
  -26.4026    7.1288  -29.5573 C   0  0  0  0  0  0  0  0  0  0  0  0
  -25.2303   -0.4475  -34.4679 C   0  0  0  0  0  0  0  0  0  0  0  0
  -25.0229   -0.0617  -32.0557 C   0  0  0  0  0  0  0  0  0  0  0  0
  -25.1850    6.8378  -30.3468 C   0  0  0  0  0  0  0  0  0  0  0  0
  -24.4653   -0.0185  -33.3916 C   0  0  0  0  0  0  0  0  0  0  0  0
  -24.2462    0.4116  -30.8237 C   0  0  0  0  0  0  0  0  0  0  0  0
  -24.4477    6.2153  -32.5346 C   0  0  0  0  0  0  0  0  0  0  0  0
  -24.1290    3.4637  -31.7422 C   0  0  0  0  0  0  0  0  0  0  0  0
  -23.8959    4.8655  -32.7164 C   0  0  0  0  0  0  0  0  0  0  0  0
  -23.8166    7.2500  -33.2718 C   0  0  0  0  0  0  0  0  0  0  0  0
  -23.0386    1.0793  -31.3279 C   0  0  0  0  0  0  0  0  0  0  0  0
  -22.9448    4.6648  -33.7552 C   0  0  0  0  0  0  0  0  0  0  0  0
  -22.7760    6.9887  -34.1760 C   0  0  0  0  0  0  0  0  0  0  0  0
  -22.6279    3.2566  -34.1674 C   0  0  0  0  0  0  0  0  0  0  0  0
  -22.1918    2.5979  -32.9207 C   0  0  0  0  0  0  0  0  0  0  0  0
  -21.8244    0.3426  -31.4316 C   0  0  0  0  0  0  0  0  0  0  0  0
  -21.6569   -1.0259  -31.0101 C   0  0  0  0  0  0  0  0  0  0  0  0
  -21.4743    5.5132  -35.4922 C   0  0  0  0  0  0  0  0  0  0  0  0
  -20.8781   -3.9552  -30.6022 C   0  0  0  0  0  0  0  0  0  0  0  0
  -20.8372    2.3018  -32.6514 C   0  0  0  0  0  0  0  0  0  0  0  0
  -20.6857    1.0938  -31.8077 C   0  0  0  0  0  0  0  0  0  0  0  0
  -20.3449   -1.5140  -30.8501 C   0  0  0  0  0  0  0  0  0  0  0  0
  -19.9458   -2.8907  -30.3604 C   0  0  0  0  0  0  0  0  0  0  0  0
  -19.2497   -0.6229  -31.0390 C   0  0  0  0  0  0  0  0  0  0  0  0
  -19.4260    0.6362  -31.5060 C   0  0  0  0  0  0  0  0  0  0  0  0
  -29.5507   -0.3311  -33.2454 O   0  0  0  0  0  0  0  0  0  0  0  0
  -27.2167    6.7064  -33.2748 O   0  0  0  0  0  0  0  0  0  0  0  0
  -27.1155    8.2095  -30.0884 O   0  0  0  0  0  0  0  0  0  0  0  0
  -24.9144    3.4168  -30.8726 O   0  0  0  0  0  0  0  0  0  0  0  0
  -19.9150    2.9654  -33.1288 O   0  0  0  0  0  0  0  0  0  0  0  0
  -25.5663    6.4947  -31.7098 N   0  0  0  0  0  0  0  0  0  0  0  0
  -23.1503    2.3602  -31.9753 N   0  0  0  0  0  0  0  0  0  0  0  0
  -22.4042    5.7036  -34.4631 N   0  0  0  0  0  0  0  0  0  0  0  0
  -19.2250   -2.7883  -29.2205 F   0  0  0  0  0  0  0  0  0  0  0  0
  -17.9858   -1.0219  -30.7993 F   0  0  0  0  0  0  0  0  0  0  0  0
  1  2  1  0
  1  3  1  0
  2  4  2  0
  3  6  1  0
  4  5  1  0
  4  7  1  0
  6  7  2  0
  6 42  1  0
  8 11  1  0
  9 11  1  0
  9 12  1  0
 10 13  1  0
 10 42  1  0
 12 14  1  0
 12 44  1  0
 13 15  1  0
 13 16  2  0
 14 43  2  0
 14 47  1  0
 15 18  1  0
 16 19  1  0
 17 20  1  0
 17 44  1  0
 18 21  2  0
 19 21  1  0
 19 22  1  0
 20 47  1  0
 22 27  1  0
 23 25  1  0
 23 26  1  0
 23 47  1  0
 24 25  1  0
 24 45  2  0
 24 48  1  0
 25 28  1  0
 26 29  2  0
 27 32  1  0
 27 48  1  0
 28 30  1  0
 28 49  1  0
 29 49  1  0
 30 31  1  0
 31 36  1  0
 31 48  1  0
 32 33  1  0
 32 37  1  0
 33 38  2  0
 34 49  1  0
 35 39  1  0
 36 37  1  0
 36 46  2  0
 37 41  1  0
 38 39  1  0
 38 40  1  0
 39 50  1  0
 40 41  2  0
 40 51  1  0
M  END
$$$$

     RDKit          3D

 46 50  0  0  0  0  0  0  0  0999 V2000
  -30.2639   -0.3990  -33.2963 C   0  0  0  0  0  0  0  0  0  0  0  0
  -29.6753    6.1852  -33.8383 C   0  0  0  0  0  0  0  0  0  0  0  0
  -29.2784    1.5762  -35.3364 C   0  0  0  0  0  0  0  0  0  0  0  0
  -29.1279    7.1731  -31.1929 C   0  0  0  0  0  0  0  0  0  0  0  0
  -28.8321   -0.1751  -33.5729 C   0  0  0  0  0  0  0  0  0  0  0  0
  -28.3522    0.7149  -34.4902 C   0  0  0  0  0  0  0  0  0  0  0  0
  -28.4109    5.8462  -33.0742 C   0  0  0  0  0  0  0  0  0  0  0  0
  -27.9373   -0.9368  -32.8555 C   0  0  0  0  0  0  0  0  0  0  0  0
  -27.8159    4.5315  -33.5930 C   0  0  0  0  0  0  0  0  0  0  0  0
  -26.9862    0.8099  -34.7595 C   0  0  0  0  0  0  0  0  0  0  0  0
  -26.5776   -0.8113  -33.0529 C   0  0  0  0  0  0  0  0  0  0  0  0
  -26.3900    4.4819  -33.0729 C   0  0  0  0  0  0  0  0  0  0  0  0
  -26.0884   -0.0058  -34.0924 C   0  0  0  0  0  0  0  0  0  0  0  0
  -25.8146   -1.6634  -32.0734 C   0  0  0  0  0  0  0  0  0  0  0  0
  -25.1346    4.2485  -30.9270 C   0  0  0  0  0  0  0  0  0  0  0  0
  -24.6178   -0.0204  -34.5324 C   0  0  0  0  0  0  0  0  0  0  0  0
  -23.7798   -1.1566  -31.0831 C   0  0  0  0  0  0  0  0  0  0  0  0
  -23.6745    0.9708  -33.8598 C   0  0  0  0  0  0  0  0  0  0  0  0
  -23.1865    0.9299  -32.4717 C   0  0  0  0  0  0  0  0  0  0  0  0
  -23.0600    2.0778  -34.4698 C   0  0  0  0  0  0  0  0  0  0  0  0
  -23.1872    3.0804  -30.1090 C   0  0  0  0  0  0  0  0  0  0  0  0
  -22.8311   -0.3080  -31.6929 C   0  0  0  0  0  0  0  0  0  0  0  0
  -22.8884    3.5537  -28.8239 C   0  0  0  0  0  0  0  0  0  0  0  0
  -22.2134    2.6641  -33.4729 C   0  0  0  0  0  0  0  0  0  0  0  0
  -22.1390   -2.5491  -30.1859 C   0  0  0  0  0  0  0  0  0  0  0  0
  -22.1713    2.5095  -30.9025 C   0  0  0  0  0  0  0  0  0  0  0  0
  -21.7352    5.0208  -33.0867 C   0  0  0  0  0  0  0  0  0  0  0  0
  -21.4972   -0.6294  -31.5122 C   0  0  0  0  0  0  0  0  0  0  0  0
  -21.6056    3.5218  -28.3512 C   0  0  0  0  0  0  0  0  0  0  0  0
  -21.1306   -1.7738  -30.7872 C   0  0  0  0  0  0  0  0  0  0  0  0
  -21.1854    3.7210  -33.6588 C   0  0  0  0  0  0  0  0  0  0  0  0
  -20.9014    2.3973  -30.3552 C   0  0  0  0  0  0  0  0  0  0  0  0
  -20.8890    3.8862  -35.1563 C   0  0  0  0  0  0  0  0  0  0  0  0
  -20.6151    2.9141  -29.0849 C   0  0  0  0  0  0  0  0  0  0  0  0
  -19.8819    3.3115  -32.9326 C   0  0  0  0  0  0  0  0  0  0  0  0
  -19.6377   -2.0755  -30.6343 C   0  0  0  0  0  0  0  0  0  0  0  0
  -30.7108    5.4697  -33.6598 O   0  0  0  0  0  0  0  0  0  0  0  0
  -29.5040    6.9774  -34.7921 O   0  0  0  0  0  0  0  0  0  0  0  0
  -25.0684   -0.8226  -31.1871 O   0  0  0  0  0  0  0  0  0  0  0  0
  -24.5406    3.1018  -30.5652 O   0  0  0  0  0  0  0  0  0  0  0  0
  -24.6611    5.3584  -30.6953 O   0  0  0  0  0  0  0  0  0  0  0  0
  -23.2796    2.5020  -35.6548 O   0  0  0  0  0  0  0  0  0  0  0  0
  -28.7101    5.8287  -31.6347 N   0  0  0  0  0  0  0  0  0  0  0  0
  -26.3322    4.1278  -31.6641 N   0  0  0  0  0  0  0  0  0  0  0  0
  -23.4341   -2.2486  -30.3980 N   0  0  0  0  0  0  0  0  0  0  0  0
  -22.4232    2.0610  -32.2508 N   0  0  0  0  0  0  0  0  0  0  0  0
  1  5  1  0
  2  7  1  0
  2 37  2  0
  2 38  1  0
  3  6  1  0
  4 43  1  0
  5  6  2  0
  5  8  1  0
  6 10  1  0
  7  9  1  0
  7 43  1  0
  8 11  2  0
  9 12  1  0
 10 13  2  0
 11 13  1  0
 11 14  1  0
 12 44  1  0
 13 16  1  0
 14 39  1  0
 15 40  1  0
 15 41  2  0
 15 44  1  0
 16 18  1  0
 17 22  2  0
 17 39  1  0
 17 45  1  0
 18 19  1  0
 18 20  1  0
 19 22  1  0
 19 46  1  0
 20 24  1  0
 20 42  2  0
 21 23  2  0
 21 26  1  0
 21 40  1  0
 22 28  1  0
 23 29  1  0
 24 31  1  0
 24 46  1  0
 25 30  1  0
 25 45  2  0
 26 32  2  0
 26 46  1  0
 27 31  1  0
 28 30  2  0
 29 34  2  0
 30 36  1  0
 31 33  1  0
 31 35  1  0
 32 34  1  0
M  END
$$$$

     RDKit          3D

 41 46  0  0  0  0  0  0  0  0999 V2000
  -31.1588    3.0021  -35.4819 C   0  0  0  0  0  0  0  0  0  0  0  0
  -30.6864    0.2024  -34.4916 C   0  0  0  0  0  0  0  0  0  0  0  0
  -30.6834    2.9005  -36.9554 C   0  0  0  0  0  0  0  0  0  0  0  0
  -30.2005   -1.0965  -34.4315 C   0  0  0  0  0  0  0  0  0  0  0  0
  -29.8709    1.2896  -34.1645 C   0  0  0  0  0  0  0  0  0  0  0  0
  -28.8538   -1.3327  -34.0350 C   0  0  0  0  0  0  0  0  0  0  0  0
  -28.8271    3.4563  -33.8020 C   0  0  0  0  0  0  0  0  0  0  0  0
  -28.5373    1.0775  -33.7624 C   0  0  0  0  0  0  0  0  0  0  0  0
  -28.0217   -0.2483  -33.6209 C   0  0  0  0  0  0  0  0  0  0  0  0
  -26.7495   -1.3527  -31.8536 C   0  0  0  0  0  0  0  0  0  0  0  0
  -26.3179    2.2808  -33.8084 C   0  0  0  0  0  0  0  0  0  0  0  0
  -25.6904    1.1932  -34.3938 C   0  0  0  0  0  0  0  0  0  0  0  0
  -25.5548    3.4000  -33.4370 C   0  0  0  0  0  0  0  0  0  0  0  0
  -25.1947    0.9697  -30.5915 C   0  0  0  0  0  0  0  0  0  0  0  0
  -24.8304   -0.3162  -30.9845 C   0  0  0  0  0  0  0  0  0  0  0  0
  -24.2959    1.1876  -34.6801 C   0  0  0  0  0  0  0  0  0  0  0  0
  -24.2453    2.0147  -30.6530 C   0  0  0  0  0  0  0  0  0  0  0  0
  -24.1714    3.3635  -33.6066 C   0  0  0  0  0  0  0  0  0  0  0  0
  -23.5011   -0.5637  -31.3984 C   0  0  0  0  0  0  0  0  0  0  0  0
  -23.5374    2.2941  -34.2718 C   0  0  0  0  0  0  0  0  0  0  0  0
  -22.9645    1.7637  -31.0814 C   0  0  0  0  0  0  0  0  0  0  0  0
  -22.5806    0.4716  -31.4879 C   0  0  0  0  0  0  0  0  0  0  0  0
  -22.5910    5.2705  -28.3400 C   0  0  0  0  0  0  0  0  0  0  0  0
  -22.5646    5.3501  -26.9165 C   0  0  0  0  0  0  0  0  0  0  0  0
  -22.1035    2.2996  -34.4559 C   0  0  0  0  0  0  0  0  0  0  0  0
  -22.0821    4.0741  -30.4888 C   0  0  0  0  0  0  0  0  0  0  0  0
  -22.1032    4.1153  -29.0080 C   0  0  0  0  0  0  0  0  0  0  0  0
  -22.1551    4.2062  -26.2176 C   0  0  0  0  0  0  0  0  0  0  0  0
  -21.6746    3.0422  -28.2487 C   0  0  0  0  0  0  0  0  0  0  0  0
  -21.6786    3.0521  -26.8601 C   0  0  0  0  0  0  0  0  0  0  0  0
  -21.0845    2.7035  -33.4889 C   0  0  0  0  0  0  0  0  0  0  0  0
  -20.9659    2.6331  -32.0435 C   0  0  0  0  0  0  0  0  0  0  0  0
  -19.7146    2.6093  -33.9299 C   0  0  0  0  0  0  0  0  0  0  0  0
  -19.6308    2.4850  -31.6346 C   0  0  0  0  0  0  0  0  0  0  0  0
  -25.6885   -1.3649  -30.9428 O   0  0  0  0  0  0  0  0  0  0  0  0
  -21.9425    5.1273  -31.0341 O   0  0  0  0  0  0  0  0  0  0  0  0
  -21.6608    2.0491  -35.6229 O   0  0  0  0  0  0  0  0  0  0  0  0
  -30.2411    2.5957  -34.3607 N   0  0  0  0  0  0  0  0  0  0  0  0
  -27.7522    2.2170  -33.4651 N   0  0  0  0  0  0  0  0  0  0  0  0
  -22.0117    2.8405  -31.1209 N   0  0  0  0  0  0  0  0  0  0  0  0
  -18.9457    2.4361  -32.8418 N   0  0  0  0  0  0  0  0  0  0  0  0
  1  3  1  0
  1 38  1  0
  2  4  2  0
  2  5  1  0
  4  6  1  0
  5  8  2  0
  5 38  1  0
  6  9  2  0
  7 38  1  0
  7 39  1  0
  8  9  1  0
  8 39  1  0
 10 35  1  0
 11 12  2  0
 11 13  1  0
 11 39  1  0
 12 16  1  0
 13 18  2  0
 14 15  2  0
 14 17  1  0
 15 19  1  0
 15 35  1  0
 16 20  2  0
 17 21  2  0
 18 20  1  0
 19 22  2  0
 20 25  1  0
 21 22  1  0
 21 40  1  0
 23 24  2  0
 23 27  1  0
 24 28  1  0
 25 31  1  0
 25 37  2  0
 26 27  1  0
 26 36  2  0
 26 40  1  0
 27 29  2  0
 28 30  2  0
 29 30  1  0
 31 32  1  0
 31 33  1  0
 32 34  1  0
 32 40  1  0
 33 41  1  0
 34 41  1  0
M  END
$$$$

     RDKit          3D

 30 34  0  0  0  0  0  0  0  0999 V2000
  -31.4312    1.0822  -34.0600 C   0  0  0  0  0  0  0  0  0  0  0  0
  -30.7806   -0.1026  -33.9601 C   0  0  0  0  0  0  0  0  0  0  0  0
  -30.7363    2.2741  -33.9030 C   0  0  0  0  0  0  0  0  0  0  0  0
  -29.4330   -0.1666  -33.6692 C   0  0  0  0  0  0  0  0  0  0  0  0
  -29.3975    2.2349  -33.6063 C   0  0  0  0  0  0  0  0  0  0  0  0
  -28.7086    1.0103  -33.4798 C   0  0  0  0  0  0  0  0  0  0  0  0
  -27.2888    0.9645  -33.1275 C   0  0  0  0  0  0  0  0  0  0  0  0
  -25.5175   -0.1866  -32.0353 C   0  0  0  0  0  0  0  0  0  0  0  0
  -25.2625    2.1351  -32.6524 C   0  0  0  0  0  0  0  0  0  0  0  0
  -25.0899   -1.3934  -31.5108 C   0  0  0  0  0  0  0  0  0  0  0  0
  -24.6824    0.9327  -32.0367 C   0  0  0  0  0  0  0  0  0  0  0  0
  -24.5033    3.3953  -32.7148 C   0  0  0  0  0  0  0  0  0  0  0  0
  -23.8027   -1.5202  -30.9380 C   0  0  0  0  0  0  0  0  0  0  0  0
  -23.3794    0.7979  -31.4406 C   0  0  0  0  0  0  0  0  0  0  0  0
  -23.3083    5.1258  -29.0599 C   0  0  0  0  0  0  0  0  0  0  0  0
  -22.9544   -0.4244  -30.9681 C   0  0  0  0  0  0  0  0  0  0  0  0
  -23.0606    3.2156  -33.0999 C   0  0  0  0  0  0  0  0  0  0  0  0
  -23.1673    4.8631  -30.4012 C   0  0  0  0  0  0  0  0  0  0  0  0
  -22.7673    2.5857  -34.3485 C   0  0  0  0  0  0  0  0  0  0  0  0
  -22.4804    4.4482  -28.1206 C   0  0  0  0  0  0  0  0  0  0  0  0
  -22.2065    3.9243  -30.8366 C   0  0  0  0  0  0  0  0  0  0  0  0
  -21.9695    3.5146  -32.2160 C   0  0  0  0  0  0  0  0  0  0  0  0
  -21.4773    2.4620  -34.8131 C   0  0  0  0  0  0  0  0  0  0  0  0
  -21.5133    3.5441  -28.5761 C   0  0  0  0  0  0  0  0  0  0  0  0
  -20.6750    3.4759  -32.7613 C   0  0  0  0  0  0  0  0  0  0  0  0
  -20.4251    2.9190  -34.0014 C   0  0  0  0  0  0  0  0  0  0  0  0
  -22.6245    4.6283  -26.7976 O   0  0  0  0  0  0  0  0  0  0  0  0
  -26.8070   -0.1266  -32.5750 N   0  0  0  0  0  0  0  0  0  0  0  0
  -26.4778    2.0664  -33.2825 N   0  0  0  0  0  0  0  0  0  0  0  0
  -21.3926    3.3030  -29.8801 N   0  0  0  0  0  0  0  0  0  0  0  0
  1  2  2  0
  1  3  1  0
  2  4  1  0
  3  5  2  0
  4  6  2  0
  5  6  1  0
  6  7  1  0
  7 28  2  0
  7 29  1  0
  8 10  2  0
  8 11  1  0
  8 28  1  0
  9 11  1  0
  9 12  1  0
  9 29  2  0
 10 13  1  0
 11 14  1  0
 12 17  1  0
 13 16  1  0
 14 16  2  0
 15 18  2  0
 15 20  1  0
 17 19  1  0
 17 22  1  0
 18 21  1  0
 19 23  2  0
 20 24  2  0
 20 27  1  0
 21 22  1  0
 21 30  2  0
 22 25  1  0
 23 26  1  0
 24 30  1  0
 25 26  2  0
M  END
$$$$
